grep -r -e "Begin" -e "End" -e "avgMshrOccupancy" ./m5out
./m5out/stats.txt:---------- Begin Simulation Statistics ----------
./m5out/stats.txt:system.cpu0.dcache.avgMshrOccupancy          0.567229                       # number of MSHRs occupancy (Count)
./m5out/stats.txt:system.cpu0.icache.avgMshrOccupancy          0.000001                       # number of MSHRs occupancy (Count)
./m5out/stats.txt:system.cpu1.dcache.avgMshrOccupancy                 0                       # number of MSHRs occupancy (Count)
./m5out/stats.txt:system.cpu1.icache.avgMshrOccupancy                 0                       # number of MSHRs occupancy (Count)
./m5out/stats.txt:system.cpu2.dcache.avgMshrOccupancy                 0                       # number of MSHRs occupancy (Count)
./m5out/stats.txt:system.cpu2.icache.avgMshrOccupancy                 0                       # number of MSHRs occupancy (Count)
./m5out/stats.txt:system.cpu3.dcache.avgMshrOccupancy                 0                       # number of MSHRs occupancy (Count)
./m5out/stats.txt:system.cpu3.icache.avgMshrOccupancy                 0                       # number of MSHRs occupancy (Count)
./m5out/stats.txt:system.l2cache1.avgMshrOccupancy             0.000005                       # number of MSHRs occupancy (Count)
./m5out/stats.txt:system.l2cache2.avgMshrOccupancy                    0                       # number of MSHRs occupancy (Count)
./m5out/stats.txt:system.l3cache.avgMshrOccupancy              0.502696                       # number of MSHRs occupancy (Count)
./m5out/stats.txt:---------- End Simulation Statistics   ----------
./m5out/stats.txt:---------- Begin Simulation Statistics ----------
./m5out/stats.txt:system.cpu0.dcache.avgMshrOccupancy          0.569730                       # number of MSHRs occupancy (Count)
./m5out/stats.txt:system.cpu0.icache.avgMshrOccupancy          0.000000                       # number of MSHRs occupancy (Count)
./m5out/stats.txt:system.cpu1.dcache.avgMshrOccupancy                 0                       # number of MSHRs occupancy (Count)
./m5out/stats.txt:system.cpu1.icache.avgMshrOccupancy                 0                       # number of MSHRs occupancy (Count)
./m5out/stats.txt:system.cpu2.dcache.avgMshrOccupancy                 0                       # number of MSHRs occupancy (Count)
./m5out/stats.txt:system.cpu2.icache.avgMshrOccupancy                 0                       # number of MSHRs occupancy (Count)
./m5out/stats.txt:system.cpu3.dcache.avgMshrOccupancy                 0                       # number of MSHRs occupancy (Count)
./m5out/stats.txt:system.cpu3.icache.avgMshrOccupancy                 0                       # number of MSHRs occupancy (Count)
./m5out/stats.txt:system.l2cache1.avgMshrOccupancy             0.000003                       # number of MSHRs occupancy (Count)
./m5out/stats.txt:system.l2cache2.avgMshrOccupancy                    0                       # number of MSHRs occupancy (Count)
./m5out/stats.txt:system.l3cache.avgMshrOccupancy              0.518833                       # number of MSHRs occupancy (Count)
./m5out/stats.txt:---------- End Simulation Statistics   ----------
./m5out/stats.txt:---------- Begin Simulation Statistics ----------
./m5out/stats.txt:system.cpu0.dcache.avgMshrOccupancy          0.393775                       # number of MSHRs occupancy (Count)
./m5out/stats.txt:system.cpu0.icache.avgMshrOccupancy                 0                       # number of MSHRs occupancy (Count)
./m5out/stats.txt:system.cpu1.dcache.avgMshrOccupancy                 0                       # number of MSHRs occupancy (Count)
./m5out/stats.txt:system.cpu1.icache.avgMshrOccupancy                 0                       # number of MSHRs occupancy (Count)
./m5out/stats.txt:system.cpu2.dcache.avgMshrOccupancy                 0                       # number of MSHRs occupancy (Count)
./m5out/stats.txt:system.cpu2.icache.avgMshrOccupancy                 0                       # number of MSHRs occupancy (Count)
./m5out/stats.txt:system.cpu3.dcache.avgMshrOccupancy                 0                       # number of MSHRs occupancy (Count)
./m5out/stats.txt:system.cpu3.icache.avgMshrOccupancy                 0                       # number of MSHRs occupancy (Count)
./m5out/stats.txt:system.l2cache1.avgMshrOccupancy             0.000004                       # number of MSHRs occupancy (Count)
./m5out/stats.txt:system.l2cache2.avgMshrOccupancy                    0                       # number of MSHRs occupancy (Count)
./m5out/stats.txt:system.l3cache.avgMshrOccupancy              0.320065                       # number of MSHRs occupancy (Count)
./m5out/stats.txt:---------- End Simulation Statistics   ----------
./m5out/stats.txt:---------- Begin Simulation Statistics ----------
./m5out/stats.txt:system.cpu0.dcache.avgMshrOccupancy          0.393774                       # number of MSHRs occupancy (Count)
./m5out/stats.txt:system.cpu0.icache.avgMshrOccupancy          0.000001                       # number of MSHRs occupancy (Count)
./m5out/stats.txt:system.cpu1.dcache.avgMshrOccupancy                 0                       # number of MSHRs occupancy (Count)
./m5out/stats.txt:system.cpu1.icache.avgMshrOccupancy                 0                       # number of MSHRs occupancy (Count)
./m5out/stats.txt:system.cpu2.dcache.avgMshrOccupancy                 0                       # number of MSHRs occupancy (Count)
./m5out/stats.txt:system.cpu2.icache.avgMshrOccupancy                 0                       # number of MSHRs occupancy (Count)
./m5out/stats.txt:system.cpu3.dcache.avgMshrOccupancy                 0                       # number of MSHRs occupancy (Count)
./m5out/stats.txt:system.cpu3.icache.avgMshrOccupancy                 0                       # number of MSHRs occupancy (Count)
./m5out/stats.txt:system.l2cache1.avgMshrOccupancy             0.000005                       # number of MSHRs occupancy (Count)
./m5out/stats.txt:system.l2cache2.avgMshrOccupancy                    0                       # number of MSHRs occupancy (Count)
./m5out/stats.txt:system.l3cache.avgMshrOccupancy              0.320066                       # number of MSHRs occupancy (Count)
./m5out/stats.txt:---------- End Simulation Statistics   ----------
./m5out/stats.txt:---------- Begin Simulation Statistics ----------
./m5out/stats.txt:system.cpu0.dcache.avgMshrOccupancy          0.328696                       # number of MSHRs occupancy (Count)
./m5out/stats.txt:system.cpu0.icache.avgMshrOccupancy                 0                       # number of MSHRs occupancy (Count)
./m5out/stats.txt:system.cpu1.dcache.avgMshrOccupancy                 0                       # number of MSHRs occupancy (Count)
./m5out/stats.txt:system.cpu1.icache.avgMshrOccupancy                 0                       # number of MSHRs occupancy (Count)
./m5out/stats.txt:system.cpu2.dcache.avgMshrOccupancy                 0                       # number of MSHRs occupancy (Count)
./m5out/stats.txt:system.cpu2.icache.avgMshrOccupancy                 0                       # number of MSHRs occupancy (Count)
./m5out/stats.txt:system.cpu3.dcache.avgMshrOccupancy                 0                       # number of MSHRs occupancy (Count)
./m5out/stats.txt:system.cpu3.icache.avgMshrOccupancy                 0                       # number of MSHRs occupancy (Count)
./m5out/stats.txt:system.l2cache1.avgMshrOccupancy             0.000003                       # number of MSHRs occupancy (Count)
./m5out/stats.txt:system.l2cache2.avgMshrOccupancy                    0                       # number of MSHRs occupancy (Count)
./m5out/stats.txt:system.l3cache.avgMshrOccupancy              0.262460                       # number of MSHRs occupancy (Count)
./m5out/stats.txt:---------- End Simulation Statistics   ----------
./m5out/stats.txt:---------- Begin Simulation Statistics ----------
./m5out/stats.txt:system.cpu0.dcache.avgMshrOccupancy          0.328697                       # number of MSHRs occupancy (Count)
./m5out/stats.txt:system.cpu0.icache.avgMshrOccupancy          0.000000                       # number of MSHRs occupancy (Count)
./m5out/stats.txt:system.cpu1.dcache.avgMshrOccupancy                 0                       # number of MSHRs occupancy (Count)
./m5out/stats.txt:system.cpu1.icache.avgMshrOccupancy                 0                       # number of MSHRs occupancy (Count)
./m5out/stats.txt:system.cpu2.dcache.avgMshrOccupancy                 0                       # number of MSHRs occupancy (Count)
./m5out/stats.txt:system.cpu2.icache.avgMshrOccupancy                 0                       # number of MSHRs occupancy (Count)
./m5out/stats.txt:system.cpu3.dcache.avgMshrOccupancy                 0                       # number of MSHRs occupancy (Count)
./m5out/stats.txt:system.cpu3.icache.avgMshrOccupancy                 0                       # number of MSHRs occupancy (Count)
./m5out/stats.txt:system.l2cache1.avgMshrOccupancy             0.000004                       # number of MSHRs occupancy (Count)
./m5out/stats.txt:system.l2cache2.avgMshrOccupancy                    0                       # number of MSHRs occupancy (Count)
./m5out/stats.txt:system.l3cache.avgMshrOccupancy              0.262449                       # number of MSHRs occupancy (Count)
./m5out/stats.txt:---------- End Simulation Statistics   ----------
./m5out/stats.txt:---------- Begin Simulation Statistics ----------
./m5out/stats.txt:system.cpu0.dcache.avgMshrOccupancy          0.290727                       # number of MSHRs occupancy (Count)
./m5out/stats.txt:system.cpu0.icache.avgMshrOccupancy          0.000000                       # number of MSHRs occupancy (Count)
./m5out/stats.txt:system.cpu1.dcache.avgMshrOccupancy                 0                       # number of MSHRs occupancy (Count)
./m5out/stats.txt:system.cpu1.icache.avgMshrOccupancy                 0                       # number of MSHRs occupancy (Count)
./m5out/stats.txt:system.cpu2.dcache.avgMshrOccupancy                 0                       # number of MSHRs occupancy (Count)
./m5out/stats.txt:system.cpu2.icache.avgMshrOccupancy                 0                       # number of MSHRs occupancy (Count)
./m5out/stats.txt:system.cpu3.dcache.avgMshrOccupancy                 0                       # number of MSHRs occupancy (Count)
./m5out/stats.txt:system.cpu3.icache.avgMshrOccupancy                 0                       # number of MSHRs occupancy (Count)
./m5out/stats.txt:system.l2cache1.avgMshrOccupancy             0.000003                       # number of MSHRs occupancy (Count)
./m5out/stats.txt:system.l2cache2.avgMshrOccupancy                    0                       # number of MSHRs occupancy (Count)
./m5out/stats.txt:system.l3cache.avgMshrOccupancy              0.206061                       # number of MSHRs occupancy (Count)
./m5out/stats.txt:---------- End Simulation Statistics   ----------
./m5out/stats.txt:---------- Begin Simulation Statistics ----------
./m5out/stats.txt:system.cpu0.dcache.avgMshrOccupancy          0.293076                       # number of MSHRs occupancy (Count)
./m5out/stats.txt:system.cpu0.icache.avgMshrOccupancy                 0                       # number of MSHRs occupancy (Count)
./m5out/stats.txt:system.cpu1.dcache.avgMshrOccupancy                 0                       # number of MSHRs occupancy (Count)
./m5out/stats.txt:system.cpu1.icache.avgMshrOccupancy                 0                       # number of MSHRs occupancy (Count)
./m5out/stats.txt:system.cpu2.dcache.avgMshrOccupancy                 0                       # number of MSHRs occupancy (Count)
./m5out/stats.txt:system.cpu2.icache.avgMshrOccupancy                 0                       # number of MSHRs occupancy (Count)
./m5out/stats.txt:system.cpu3.dcache.avgMshrOccupancy                 0                       # number of MSHRs occupancy (Count)
./m5out/stats.txt:system.cpu3.icache.avgMshrOccupancy                 0                       # number of MSHRs occupancy (Count)
./m5out/stats.txt:system.l2cache1.avgMshrOccupancy             0.000004                       # number of MSHRs occupancy (Count)
./m5out/stats.txt:system.l2cache2.avgMshrOccupancy                    0                       # number of MSHRs occupancy (Count)
./m5out/stats.txt:system.l3cache.avgMshrOccupancy              0.206655                       # number of MSHRs occupancy (Count)
./m5out/stats.txt:---------- End Simulation Statistics   ----------
./m5out/stats.txt:---------- Begin Simulation Statistics ----------
./m5out/stats.txt:system.cpu0.dcache.avgMshrOccupancy          0.261071                       # number of MSHRs occupancy (Count)
./m5out/stats.txt:system.cpu0.icache.avgMshrOccupancy                 0                       # number of MSHRs occupancy (Count)
./m5out/stats.txt:system.cpu1.dcache.avgMshrOccupancy                 0                       # number of MSHRs occupancy (Count)
./m5out/stats.txt:system.cpu1.icache.avgMshrOccupancy                 0                       # number of MSHRs occupancy (Count)
./m5out/stats.txt:system.cpu2.dcache.avgMshrOccupancy                 0                       # number of MSHRs occupancy (Count)
./m5out/stats.txt:system.cpu2.icache.avgMshrOccupancy                 0                       # number of MSHRs occupancy (Count)
./m5out/stats.txt:system.cpu3.dcache.avgMshrOccupancy                 0                       # number of MSHRs occupancy (Count)
./m5out/stats.txt:system.cpu3.icache.avgMshrOccupancy                 0                       # number of MSHRs occupancy (Count)
./m5out/stats.txt:system.l2cache1.avgMshrOccupancy             0.000003                       # number of MSHRs occupancy (Count)
./m5out/stats.txt:system.l2cache2.avgMshrOccupancy                    0                       # number of MSHRs occupancy (Count)
./m5out/stats.txt:system.l3cache.avgMshrOccupancy              0.184322                       # number of MSHRs occupancy (Count)
./m5out/stats.txt:---------- End Simulation Statistics   ----------
./m5out/stats.txt:---------- Begin Simulation Statistics ----------
./m5out/stats.txt:system.cpu0.dcache.avgMshrOccupancy          0.261071                       # number of MSHRs occupancy (Count)
./m5out/stats.txt:system.cpu0.icache.avgMshrOccupancy          0.000000                       # number of MSHRs occupancy (Count)
./m5out/stats.txt:system.cpu1.dcache.avgMshrOccupancy                 0                       # number of MSHRs occupancy (Count)
./m5out/stats.txt:system.cpu1.icache.avgMshrOccupancy                 0                       # number of MSHRs occupancy (Count)
./m5out/stats.txt:system.cpu2.dcache.avgMshrOccupancy                 0                       # number of MSHRs occupancy (Count)
./m5out/stats.txt:system.cpu2.icache.avgMshrOccupancy                 0                       # number of MSHRs occupancy (Count)
./m5out/stats.txt:system.cpu3.dcache.avgMshrOccupancy                 0                       # number of MSHRs occupancy (Count)
./m5out/stats.txt:system.cpu3.icache.avgMshrOccupancy                 0                       # number of MSHRs occupancy (Count)
./m5out/stats.txt:system.l2cache1.avgMshrOccupancy             0.000003                       # number of MSHRs occupancy (Count)
./m5out/stats.txt:system.l2cache2.avgMshrOccupancy                    0                       # number of MSHRs occupancy (Count)
./m5out/stats.txt:system.l3cache.avgMshrOccupancy              0.184313                       # number of MSHRs occupancy (Count)
./m5out/stats.txt:---------- End Simulation Statistics   ----------
./m5out/stats.txt:---------- Begin Simulation Statistics ----------
./m5out/stats.txt:system.cpu0.dcache.avgMshrOccupancy          0.251153                       # number of MSHRs occupancy (Count)
./m5out/stats.txt:system.cpu0.icache.avgMshrOccupancy                 0                       # number of MSHRs occupancy (Count)
./m5out/stats.txt:system.cpu1.dcache.avgMshrOccupancy                 0                       # number of MSHRs occupancy (Count)
./m5out/stats.txt:system.cpu1.icache.avgMshrOccupancy                 0                       # number of MSHRs occupancy (Count)
./m5out/stats.txt:system.cpu2.dcache.avgMshrOccupancy                 0                       # number of MSHRs occupancy (Count)
./m5out/stats.txt:system.cpu2.icache.avgMshrOccupancy                 0                       # number of MSHRs occupancy (Count)
./m5out/stats.txt:system.cpu3.dcache.avgMshrOccupancy                 0                       # number of MSHRs occupancy (Count)
./m5out/stats.txt:system.cpu3.icache.avgMshrOccupancy                 0                       # number of MSHRs occupancy (Count)
./m5out/stats.txt:system.l2cache1.avgMshrOccupancy             0.000003                       # number of MSHRs occupancy (Count)
./m5out/stats.txt:system.l2cache2.avgMshrOccupancy                    0                       # number of MSHRs occupancy (Count)
./m5out/stats.txt:system.l3cache.avgMshrOccupancy              0.164345                       # number of MSHRs occupancy (Count)
./m5out/stats.txt:---------- End Simulation Statistics   ----------
./m5out/stats.txt:---------- Begin Simulation Statistics ----------
./m5out/stats.txt:system.cpu0.dcache.avgMshrOccupancy          0.251154                       # number of MSHRs occupancy (Count)
./m5out/stats.txt:system.cpu0.icache.avgMshrOccupancy                 0                       # number of MSHRs occupancy (Count)
./m5out/stats.txt:system.cpu1.dcache.avgMshrOccupancy                 0                       # number of MSHRs occupancy (Count)
./m5out/stats.txt:system.cpu1.icache.avgMshrOccupancy                 0                       # number of MSHRs occupancy (Count)
./m5out/stats.txt:system.cpu2.dcache.avgMshrOccupancy                 0                       # number of MSHRs occupancy (Count)
./m5out/stats.txt:system.cpu2.icache.avgMshrOccupancy                 0                       # number of MSHRs occupancy (Count)
./m5out/stats.txt:system.cpu3.dcache.avgMshrOccupancy                 0                       # number of MSHRs occupancy (Count)
./m5out/stats.txt:system.cpu3.icache.avgMshrOccupancy                 0                       # number of MSHRs occupancy (Count)
./m5out/stats.txt:system.l2cache1.avgMshrOccupancy             0.000003                       # number of MSHRs occupancy (Count)
./m5out/stats.txt:system.l2cache2.avgMshrOccupancy                    0                       # number of MSHRs occupancy (Count)
./m5out/stats.txt:system.l3cache.avgMshrOccupancy              0.168723                       # number of MSHRs occupancy (Count)
./m5out/stats.txt:---------- End Simulation Statistics   ----------
./m5out/stats.txt:---------- Begin Simulation Statistics ----------
./m5out/stats.txt:system.cpu0.dcache.avgMshrOccupancy          0.224876                       # number of MSHRs occupancy (Count)
./m5out/stats.txt:system.cpu0.icache.avgMshrOccupancy                 0                       # number of MSHRs occupancy (Count)
./m5out/stats.txt:system.cpu1.dcache.avgMshrOccupancy                 0                       # number of MSHRs occupancy (Count)
./m5out/stats.txt:system.cpu1.icache.avgMshrOccupancy                 0                       # number of MSHRs occupancy (Count)
./m5out/stats.txt:system.cpu2.dcache.avgMshrOccupancy                 0                       # number of MSHRs occupancy (Count)
./m5out/stats.txt:system.cpu2.icache.avgMshrOccupancy                 0                       # number of MSHRs occupancy (Count)
./m5out/stats.txt:system.cpu3.dcache.avgMshrOccupancy                 0                       # number of MSHRs occupancy (Count)
./m5out/stats.txt:system.cpu3.icache.avgMshrOccupancy                 0                       # number of MSHRs occupancy (Count)
./m5out/stats.txt:system.l2cache1.avgMshrOccupancy             0.000003                       # number of MSHRs occupancy (Count)
./m5out/stats.txt:system.l2cache2.avgMshrOccupancy                    0                       # number of MSHRs occupancy (Count)
./m5out/stats.txt:system.l3cache.avgMshrOccupancy              0.120254                       # number of MSHRs occupancy (Count)
./m5out/stats.txt:---------- End Simulation Statistics   ----------
./m5out/stats.txt:---------- Begin Simulation Statistics ----------
./m5out/stats.txt:system.cpu0.dcache.avgMshrOccupancy          0.228297                       # number of MSHRs occupancy (Count)
./m5out/stats.txt:system.cpu0.icache.avgMshrOccupancy                 0                       # number of MSHRs occupancy (Count)
./m5out/stats.txt:system.cpu1.dcache.avgMshrOccupancy                 0                       # number of MSHRs occupancy (Count)
./m5out/stats.txt:system.cpu1.icache.avgMshrOccupancy                 0                       # number of MSHRs occupancy (Count)
./m5out/stats.txt:system.cpu2.dcache.avgMshrOccupancy                 0                       # number of MSHRs occupancy (Count)
./m5out/stats.txt:system.cpu2.icache.avgMshrOccupancy                 0                       # number of MSHRs occupancy (Count)
./m5out/stats.txt:system.cpu3.dcache.avgMshrOccupancy                 0                       # number of MSHRs occupancy (Count)
./m5out/stats.txt:system.cpu3.icache.avgMshrOccupancy                 0                       # number of MSHRs occupancy (Count)
./m5out/stats.txt:system.l2cache1.avgMshrOccupancy             0.000003                       # number of MSHRs occupancy (Count)
./m5out/stats.txt:system.l2cache2.avgMshrOccupancy                    0                       # number of MSHRs occupancy (Count)
./m5out/stats.txt:system.l3cache.avgMshrOccupancy              0.115709                       # number of MSHRs occupancy (Count)
./m5out/stats.txt:---------- End Simulation Statistics   ----------
