
---------- Begin Simulation Statistics ----------
simSeconds                                   0.081778                       # Number of seconds simulated (Second)
simTicks                                  81777777750                       # Number of ticks simulated (Tick)
finalTick                                141628682500                       # Number of ticks from beginning of simulation (restored from checkpoints and never reset) (Tick)
simFreq                                  1000000000000                       # The number of ticks per simulated second ((Tick/Second))
hostSeconds                                   1249.72                       # Real time elapsed on the host (Second)
hostTickRate                                 65436827                       # The number of ticks simulated per host second (ticks/s) ((Tick/Second))
hostMemory                                    8585412                       # Number of bytes of host memory used (Byte)
simInsts                                    377497728                       # Number of instructions simulated (Count)
simOps                                      763383191                       # Number of ops (including micro ops) simulated (Count)
hostInstRate                                   302066                       # Simulator instruction rate (inst/s) ((Count/Second))
hostOpRate                                     610843                       # Simulator op (including micro ops) rate (op/s) ((Count/Second))
system.clk_domain.clock                           250                       # Clock period in ticks (Tick)
system.clk_domain.voltage_domain.voltage            1                       # Voltage in Volts (Volt)
system.cpu0.numCycles                       327111111                       # Number of cpu cycles simulated (Cycle)
system.cpu0.cpi                              0.999864                       # CPI: cycles per instruction (core level) ((Cycle/Count))
system.cpu0.ipc                              1.000136                       # IPC: instructions per cycle (core level) ((Count/Cycle))
system.cpu0.numWorkItemsStarted                     0                       # Number of work items this cpu started (Count)
system.cpu0.numWorkItemsCompleted                   0                       # Number of work items this cpu completed (Count)
system.cpu0.instsAdded                      662700295                       # Number of instructions added to the IQ (excludes non-spec) (Count)
system.cpu0.nonSpecInstsAdded                       1                       # Number of non-speculative instructions added to the IQ (Count)
system.cpu0.instsIssued                     662700223                       # Number of instructions issued (Count)
system.cpu0.squashedInstsExamined                  66                       # Number of squashed instructions iterated over during squash; mainly for profiling (Count)
system.cpu0.squashedOperandsExamined               87                       # Number of squashed operands that are examined and possibly removed from graph (Count)
system.cpu0.numIssuedDist::samples          327110796                       # Number of insts issued each cycle (Count)
system.cpu0.numIssuedDist::mean              2.025920                       # Number of insts issued each cycle (Count)
system.cpu0.numIssuedDist::stdev             2.388449                       # Number of insts issued each cycle (Count)
system.cpu0.numIssuedDist::underflows               0      0.00%      0.00% # Number of insts issued each cycle (Count)
system.cpu0.numIssuedDist::0                161435729     49.35%     49.35% # Number of insts issued each cycle (Count)
system.cpu0.numIssuedDist::1                  2097165      0.64%     49.99% # Number of insts issued each cycle (Count)
system.cpu0.numIssuedDist::2                 46137351     14.10%     64.10% # Number of insts issued each cycle (Count)
system.cpu0.numIssuedDist::3                 20971541      6.41%     70.51% # Number of insts issued each cycle (Count)
system.cpu0.numIssuedDist::4                 40894466     12.50%     83.01% # Number of insts issued each cycle (Count)
system.cpu0.numIssuedDist::5                 24117253      7.37%     90.38% # Number of insts issued each cycle (Count)
system.cpu0.numIssuedDist::6                  9437193      2.89%     93.27% # Number of insts issued each cycle (Count)
system.cpu0.numIssuedDist::7                 11534338      3.53%     96.79% # Number of insts issued each cycle (Count)
system.cpu0.numIssuedDist::8                 10485760      3.21%    100.00% # Number of insts issued each cycle (Count)
system.cpu0.numIssuedDist::overflows                0      0.00%    100.00% # Number of insts issued each cycle (Count)
system.cpu0.numIssuedDist::min_value                0                       # Number of insts issued each cycle (Count)
system.cpu0.numIssuedDist::max_value                8                       # Number of insts issued each cycle (Count)
system.cpu0.numIssuedDist::total            327110796                       # Number of insts issued each cycle (Count)
system.cpu0.statFuBusy::No_OpClass                  0      0.00%      0.00% # attempts to use FU when none available (Count)
system.cpu0.statFuBusy::IntAlu                      0      0.00%      0.00% # attempts to use FU when none available (Count)
system.cpu0.statFuBusy::IntMult                     0      0.00%      0.00% # attempts to use FU when none available (Count)
system.cpu0.statFuBusy::IntDiv                      0      0.00%      0.00% # attempts to use FU when none available (Count)
system.cpu0.statFuBusy::FloatAdd                    0      0.00%      0.00% # attempts to use FU when none available (Count)
system.cpu0.statFuBusy::FloatCmp                    0      0.00%      0.00% # attempts to use FU when none available (Count)
system.cpu0.statFuBusy::FloatCvt                    0      0.00%      0.00% # attempts to use FU when none available (Count)
system.cpu0.statFuBusy::FloatMult                   0      0.00%      0.00% # attempts to use FU when none available (Count)
system.cpu0.statFuBusy::FloatMultAcc                0      0.00%      0.00% # attempts to use FU when none available (Count)
system.cpu0.statFuBusy::FloatDiv                    0      0.00%      0.00% # attempts to use FU when none available (Count)
system.cpu0.statFuBusy::FloatMisc                   0      0.00%      0.00% # attempts to use FU when none available (Count)
system.cpu0.statFuBusy::FloatSqrt                   0      0.00%      0.00% # attempts to use FU when none available (Count)
system.cpu0.statFuBusy::SimdAdd              16777203     33.33%     33.33% # attempts to use FU when none available (Count)
system.cpu0.statFuBusy::SimdAddAcc                  0      0.00%     33.33% # attempts to use FU when none available (Count)
system.cpu0.statFuBusy::SimdAlu                     0      0.00%     33.33% # attempts to use FU when none available (Count)
system.cpu0.statFuBusy::SimdCmp                     0      0.00%     33.33% # attempts to use FU when none available (Count)
system.cpu0.statFuBusy::SimdCvt                     0      0.00%     33.33% # attempts to use FU when none available (Count)
system.cpu0.statFuBusy::SimdMisc                    0      0.00%     33.33% # attempts to use FU when none available (Count)
system.cpu0.statFuBusy::SimdMult             16777216     33.33%     66.67% # attempts to use FU when none available (Count)
system.cpu0.statFuBusy::SimdMultAcc                 0      0.00%     66.67% # attempts to use FU when none available (Count)
system.cpu0.statFuBusy::SimdMatMultAcc              0      0.00%     66.67% # attempts to use FU when none available (Count)
system.cpu0.statFuBusy::SimdShift            16777211     33.33%    100.00% # attempts to use FU when none available (Count)
system.cpu0.statFuBusy::SimdShiftAcc                0      0.00%    100.00% # attempts to use FU when none available (Count)
system.cpu0.statFuBusy::SimdDiv                     0      0.00%    100.00% # attempts to use FU when none available (Count)
system.cpu0.statFuBusy::SimdSqrt                    0      0.00%    100.00% # attempts to use FU when none available (Count)
system.cpu0.statFuBusy::SimdFloatAdd                0      0.00%    100.00% # attempts to use FU when none available (Count)
system.cpu0.statFuBusy::SimdFloatAlu                0      0.00%    100.00% # attempts to use FU when none available (Count)
system.cpu0.statFuBusy::SimdFloatCmp                0      0.00%    100.00% # attempts to use FU when none available (Count)
system.cpu0.statFuBusy::SimdFloatCvt                0      0.00%    100.00% # attempts to use FU when none available (Count)
system.cpu0.statFuBusy::SimdFloatDiv                0      0.00%    100.00% # attempts to use FU when none available (Count)
system.cpu0.statFuBusy::SimdFloatMisc               0      0.00%    100.00% # attempts to use FU when none available (Count)
system.cpu0.statFuBusy::SimdFloatMult               0      0.00%    100.00% # attempts to use FU when none available (Count)
system.cpu0.statFuBusy::SimdFloatMultAcc            0      0.00%    100.00% # attempts to use FU when none available (Count)
system.cpu0.statFuBusy::SimdFloatMatMultAcc            0      0.00%    100.00% # attempts to use FU when none available (Count)
system.cpu0.statFuBusy::SimdFloatSqrt               0      0.00%    100.00% # attempts to use FU when none available (Count)
system.cpu0.statFuBusy::SimdReduceAdd               0      0.00%    100.00% # attempts to use FU when none available (Count)
system.cpu0.statFuBusy::SimdReduceAlu               0      0.00%    100.00% # attempts to use FU when none available (Count)
system.cpu0.statFuBusy::SimdReduceCmp               0      0.00%    100.00% # attempts to use FU when none available (Count)
system.cpu0.statFuBusy::SimdFloatReduceAdd            0      0.00%    100.00% # attempts to use FU when none available (Count)
system.cpu0.statFuBusy::SimdFloatReduceCmp            0      0.00%    100.00% # attempts to use FU when none available (Count)
system.cpu0.statFuBusy::SimdAes                     0      0.00%    100.00% # attempts to use FU when none available (Count)
system.cpu0.statFuBusy::SimdAesMix                  0      0.00%    100.00% # attempts to use FU when none available (Count)
system.cpu0.statFuBusy::SimdSha1Hash                0      0.00%    100.00% # attempts to use FU when none available (Count)
system.cpu0.statFuBusy::SimdSha1Hash2               0      0.00%    100.00% # attempts to use FU when none available (Count)
system.cpu0.statFuBusy::SimdSha256Hash              0      0.00%    100.00% # attempts to use FU when none available (Count)
system.cpu0.statFuBusy::SimdSha256Hash2             0      0.00%    100.00% # attempts to use FU when none available (Count)
system.cpu0.statFuBusy::SimdShaSigma2               0      0.00%    100.00% # attempts to use FU when none available (Count)
system.cpu0.statFuBusy::SimdShaSigma3               0      0.00%    100.00% # attempts to use FU when none available (Count)
system.cpu0.statFuBusy::SimdPredAlu                 0      0.00%    100.00% # attempts to use FU when none available (Count)
system.cpu0.statFuBusy::Matrix                      0      0.00%    100.00% # attempts to use FU when none available (Count)
system.cpu0.statFuBusy::MatrixMov                   0      0.00%    100.00% # attempts to use FU when none available (Count)
system.cpu0.statFuBusy::MatrixOP                    0      0.00%    100.00% # attempts to use FU when none available (Count)
system.cpu0.statFuBusy::MemRead                     0      0.00%    100.00% # attempts to use FU when none available (Count)
system.cpu0.statFuBusy::MemWrite                    0      0.00%    100.00% # attempts to use FU when none available (Count)
system.cpu0.statFuBusy::FloatMemRead                0      0.00%    100.00% # attempts to use FU when none available (Count)
system.cpu0.statFuBusy::FloatMemWrite               0      0.00%    100.00% # attempts to use FU when none available (Count)
system.cpu0.statFuBusy::IprAccess                   0      0.00%    100.00% # attempts to use FU when none available (Count)
system.cpu0.statFuBusy::InstPrefetch                0      0.00%    100.00% # attempts to use FU when none available (Count)
system.cpu0.statFuBusy::VectorUnitStrideLoad            0      0.00%    100.00% # attempts to use FU when none available (Count)
system.cpu0.statFuBusy::VectorUnitStrideStore            0      0.00%    100.00% # attempts to use FU when none available (Count)
system.cpu0.statFuBusy::VectorUnitStrideMaskLoad            0      0.00%    100.00% # attempts to use FU when none available (Count)
system.cpu0.statFuBusy::VectorUnitStrideMaskStore            0      0.00%    100.00% # attempts to use FU when none available (Count)
system.cpu0.statFuBusy::VectorStridedLoad            0      0.00%    100.00% # attempts to use FU when none available (Count)
system.cpu0.statFuBusy::VectorStridedStore            0      0.00%    100.00% # attempts to use FU when none available (Count)
system.cpu0.statFuBusy::VectorIndexedLoad            0      0.00%    100.00% # attempts to use FU when none available (Count)
system.cpu0.statFuBusy::VectorIndexedStore            0      0.00%    100.00% # attempts to use FU when none available (Count)
system.cpu0.statFuBusy::VectorUnitStrideFaultOnlyFirstLoad            0      0.00%    100.00% # attempts to use FU when none available (Count)
system.cpu0.statFuBusy::VectorWholeRegisterLoad            0      0.00%    100.00% # attempts to use FU when none available (Count)
system.cpu0.statFuBusy::VectorWholeRegisterStore            0      0.00%    100.00% # attempts to use FU when none available (Count)
system.cpu0.statFuBusy::VectorIntegerArith            0      0.00%    100.00% # attempts to use FU when none available (Count)
system.cpu0.statFuBusy::VectorFloatArith            0      0.00%    100.00% # attempts to use FU when none available (Count)
system.cpu0.statFuBusy::VectorFloatConvert            0      0.00%    100.00% # attempts to use FU when none available (Count)
system.cpu0.statFuBusy::VectorIntegerReduce            0      0.00%    100.00% # attempts to use FU when none available (Count)
system.cpu0.statFuBusy::VectorFloatReduce            0      0.00%    100.00% # attempts to use FU when none available (Count)
system.cpu0.statFuBusy::VectorMisc                  0      0.00%    100.00% # attempts to use FU when none available (Count)
system.cpu0.statFuBusy::VectorIntegerExtension            0      0.00%    100.00% # attempts to use FU when none available (Count)
system.cpu0.statFuBusy::VectorConfig                0      0.00%    100.00% # attempts to use FU when none available (Count)
system.cpu0.statIssuedInstType_0::No_OpClass            7      0.00%      0.00% # Number of instructions issued per FU type, per thread (Count)
system.cpu0.statIssuedInstType_0::IntAlu    192938097     29.11%     29.11% # Number of instructions issued per FU type, per thread (Count)
system.cpu0.statIssuedInstType_0::IntMult            0      0.00%     29.11% # Number of instructions issued per FU type, per thread (Count)
system.cpu0.statIssuedInstType_0::IntDiv            0      0.00%     29.11% # Number of instructions issued per FU type, per thread (Count)
system.cpu0.statIssuedInstType_0::FloatAdd            6      0.00%     29.11% # Number of instructions issued per FU type, per thread (Count)
system.cpu0.statIssuedInstType_0::FloatCmp            0      0.00%     29.11% # Number of instructions issued per FU type, per thread (Count)
system.cpu0.statIssuedInstType_0::FloatCvt            0      0.00%     29.11% # Number of instructions issued per FU type, per thread (Count)
system.cpu0.statIssuedInstType_0::FloatMult            0      0.00%     29.11% # Number of instructions issued per FU type, per thread (Count)
system.cpu0.statIssuedInstType_0::FloatMultAcc            0      0.00%     29.11% # Number of instructions issued per FU type, per thread (Count)
system.cpu0.statIssuedInstType_0::FloatDiv            0      0.00%     29.11% # Number of instructions issued per FU type, per thread (Count)
system.cpu0.statIssuedInstType_0::FloatMisc            0      0.00%     29.11% # Number of instructions issued per FU type, per thread (Count)
system.cpu0.statIssuedInstType_0::FloatSqrt            0      0.00%     29.11% # Number of instructions issued per FU type, per thread (Count)
system.cpu0.statIssuedInstType_0::SimdAdd    150994948     22.78%     51.90% # Number of instructions issued per FU type, per thread (Count)
system.cpu0.statIssuedInstType_0::SimdAddAcc            0      0.00%     51.90% # Number of instructions issued per FU type, per thread (Count)
system.cpu0.statIssuedInstType_0::SimdAlu            1      0.00%     51.90% # Number of instructions issued per FU type, per thread (Count)
system.cpu0.statIssuedInstType_0::SimdCmp            0      0.00%     51.90% # Number of instructions issued per FU type, per thread (Count)
system.cpu0.statIssuedInstType_0::SimdCvt     33554432      5.06%     56.96% # Number of instructions issued per FU type, per thread (Count)
system.cpu0.statIssuedInstType_0::SimdMisc     50331649      7.59%     64.56% # Number of instructions issued per FU type, per thread (Count)
system.cpu0.statIssuedInstType_0::SimdMult    100663296     15.19%     79.75% # Number of instructions issued per FU type, per thread (Count)
system.cpu0.statIssuedInstType_0::SimdMultAcc            0      0.00%     79.75% # Number of instructions issued per FU type, per thread (Count)
system.cpu0.statIssuedInstType_0::SimdMatMultAcc            0      0.00%     79.75% # Number of instructions issued per FU type, per thread (Count)
system.cpu0.statIssuedInstType_0::SimdShift    100663304     15.19%     94.94% # Number of instructions issued per FU type, per thread (Count)
system.cpu0.statIssuedInstType_0::SimdShiftAcc            0      0.00%     94.94% # Number of instructions issued per FU type, per thread (Count)
system.cpu0.statIssuedInstType_0::SimdDiv            0      0.00%     94.94% # Number of instructions issued per FU type, per thread (Count)
system.cpu0.statIssuedInstType_0::SimdSqrt            0      0.00%     94.94% # Number of instructions issued per FU type, per thread (Count)
system.cpu0.statIssuedInstType_0::SimdFloatAdd            0      0.00%     94.94% # Number of instructions issued per FU type, per thread (Count)
system.cpu0.statIssuedInstType_0::SimdFloatAlu            0      0.00%     94.94% # Number of instructions issued per FU type, per thread (Count)
system.cpu0.statIssuedInstType_0::SimdFloatCmp            0      0.00%     94.94% # Number of instructions issued per FU type, per thread (Count)
system.cpu0.statIssuedInstType_0::SimdFloatCvt            0      0.00%     94.94% # Number of instructions issued per FU type, per thread (Count)
system.cpu0.statIssuedInstType_0::SimdFloatDiv            0      0.00%     94.94% # Number of instructions issued per FU type, per thread (Count)
system.cpu0.statIssuedInstType_0::SimdFloatMisc            0      0.00%     94.94% # Number of instructions issued per FU type, per thread (Count)
system.cpu0.statIssuedInstType_0::SimdFloatMult            0      0.00%     94.94% # Number of instructions issued per FU type, per thread (Count)
system.cpu0.statIssuedInstType_0::SimdFloatMultAcc            0      0.00%     94.94% # Number of instructions issued per FU type, per thread (Count)
system.cpu0.statIssuedInstType_0::SimdFloatMatMultAcc            0      0.00%     94.94% # Number of instructions issued per FU type, per thread (Count)
system.cpu0.statIssuedInstType_0::SimdFloatSqrt            0      0.00%     94.94% # Number of instructions issued per FU type, per thread (Count)
system.cpu0.statIssuedInstType_0::SimdReduceAdd            0      0.00%     94.94% # Number of instructions issued per FU type, per thread (Count)
system.cpu0.statIssuedInstType_0::SimdReduceAlu            0      0.00%     94.94% # Number of instructions issued per FU type, per thread (Count)
system.cpu0.statIssuedInstType_0::SimdReduceCmp            0      0.00%     94.94% # Number of instructions issued per FU type, per thread (Count)
system.cpu0.statIssuedInstType_0::SimdFloatReduceAdd            0      0.00%     94.94% # Number of instructions issued per FU type, per thread (Count)
system.cpu0.statIssuedInstType_0::SimdFloatReduceCmp            0      0.00%     94.94% # Number of instructions issued per FU type, per thread (Count)
system.cpu0.statIssuedInstType_0::SimdAes            0      0.00%     94.94% # Number of instructions issued per FU type, per thread (Count)
system.cpu0.statIssuedInstType_0::SimdAesMix            0      0.00%     94.94% # Number of instructions issued per FU type, per thread (Count)
system.cpu0.statIssuedInstType_0::SimdSha1Hash            0      0.00%     94.94% # Number of instructions issued per FU type, per thread (Count)
system.cpu0.statIssuedInstType_0::SimdSha1Hash2            0      0.00%     94.94% # Number of instructions issued per FU type, per thread (Count)
system.cpu0.statIssuedInstType_0::SimdSha256Hash            0      0.00%     94.94% # Number of instructions issued per FU type, per thread (Count)
system.cpu0.statIssuedInstType_0::SimdSha256Hash2            0      0.00%     94.94% # Number of instructions issued per FU type, per thread (Count)
system.cpu0.statIssuedInstType_0::SimdShaSigma2            0      0.00%     94.94% # Number of instructions issued per FU type, per thread (Count)
system.cpu0.statIssuedInstType_0::SimdShaSigma3            0      0.00%     94.94% # Number of instructions issued per FU type, per thread (Count)
system.cpu0.statIssuedInstType_0::SimdPredAlu            0      0.00%     94.94% # Number of instructions issued per FU type, per thread (Count)
system.cpu0.statIssuedInstType_0::Matrix            0      0.00%     94.94% # Number of instructions issued per FU type, per thread (Count)
system.cpu0.statIssuedInstType_0::MatrixMov            0      0.00%     94.94% # Number of instructions issued per FU type, per thread (Count)
system.cpu0.statIssuedInstType_0::MatrixOP            0      0.00%     94.94% # Number of instructions issued per FU type, per thread (Count)
system.cpu0.statIssuedInstType_0::MemRead           20      0.00%     94.94% # Number of instructions issued per FU type, per thread (Count)
system.cpu0.statIssuedInstType_0::MemWrite           19      0.00%     94.94% # Number of instructions issued per FU type, per thread (Count)
system.cpu0.statIssuedInstType_0::FloatMemRead     33554442      5.06%    100.00% # Number of instructions issued per FU type, per thread (Count)
system.cpu0.statIssuedInstType_0::FloatMemWrite            2      0.00%    100.00% # Number of instructions issued per FU type, per thread (Count)
system.cpu0.statIssuedInstType_0::IprAccess            0      0.00%    100.00% # Number of instructions issued per FU type, per thread (Count)
system.cpu0.statIssuedInstType_0::InstPrefetch            0      0.00%    100.00% # Number of instructions issued per FU type, per thread (Count)
system.cpu0.statIssuedInstType_0::VectorUnitStrideLoad            0      0.00%    100.00% # Number of instructions issued per FU type, per thread (Count)
system.cpu0.statIssuedInstType_0::VectorUnitStrideStore            0      0.00%    100.00% # Number of instructions issued per FU type, per thread (Count)
system.cpu0.statIssuedInstType_0::VectorUnitStrideMaskLoad            0      0.00%    100.00% # Number of instructions issued per FU type, per thread (Count)
system.cpu0.statIssuedInstType_0::VectorUnitStrideMaskStore            0      0.00%    100.00% # Number of instructions issued per FU type, per thread (Count)
system.cpu0.statIssuedInstType_0::VectorStridedLoad            0      0.00%    100.00% # Number of instructions issued per FU type, per thread (Count)
system.cpu0.statIssuedInstType_0::VectorStridedStore            0      0.00%    100.00% # Number of instructions issued per FU type, per thread (Count)
system.cpu0.statIssuedInstType_0::VectorIndexedLoad            0      0.00%    100.00% # Number of instructions issued per FU type, per thread (Count)
system.cpu0.statIssuedInstType_0::VectorIndexedStore            0      0.00%    100.00% # Number of instructions issued per FU type, per thread (Count)
system.cpu0.statIssuedInstType_0::VectorUnitStrideFaultOnlyFirstLoad            0      0.00%    100.00% # Number of instructions issued per FU type, per thread (Count)
system.cpu0.statIssuedInstType_0::VectorWholeRegisterLoad            0      0.00%    100.00% # Number of instructions issued per FU type, per thread (Count)
system.cpu0.statIssuedInstType_0::VectorWholeRegisterStore            0      0.00%    100.00% # Number of instructions issued per FU type, per thread (Count)
system.cpu0.statIssuedInstType_0::VectorIntegerArith            0      0.00%    100.00% # Number of instructions issued per FU type, per thread (Count)
system.cpu0.statIssuedInstType_0::VectorFloatArith            0      0.00%    100.00% # Number of instructions issued per FU type, per thread (Count)
system.cpu0.statIssuedInstType_0::VectorFloatConvert            0      0.00%    100.00% # Number of instructions issued per FU type, per thread (Count)
system.cpu0.statIssuedInstType_0::VectorIntegerReduce            0      0.00%    100.00% # Number of instructions issued per FU type, per thread (Count)
system.cpu0.statIssuedInstType_0::VectorFloatReduce            0      0.00%    100.00% # Number of instructions issued per FU type, per thread (Count)
system.cpu0.statIssuedInstType_0::VectorMisc            0      0.00%    100.00% # Number of instructions issued per FU type, per thread (Count)
system.cpu0.statIssuedInstType_0::VectorIntegerExtension            0      0.00%    100.00% # Number of instructions issued per FU type, per thread (Count)
system.cpu0.statIssuedInstType_0::VectorConfig            0      0.00%    100.00% # Number of instructions issued per FU type, per thread (Count)
system.cpu0.statIssuedInstType_0::total     662700223                       # Number of instructions issued per FU type, per thread (Count)
system.cpu0.issueRate                        2.025918                       # Inst issue rate ((Count/Cycle))
system.cpu0.fuBusy                           50331630                       # FU busy when requested (Count)
system.cpu0.fuBusyRate                       0.075949                       # FU busy rate (busy events/executed inst) ((Count/Count))
system.cpu0.intInstQueueReads               427774399                       # Number of integer instruction queue reads (Count)
system.cpu0.intInstQueueWrites               50331869                       # Number of integer instruction queue writes (Count)
system.cpu0.intInstQueueWakeupAccesses       50331778                       # Number of integer instruction queue wakeup accesses (Count)
system.cpu0.fpInstQueueReads               1275068474                       # Number of floating instruction queue reads (Count)
system.cpu0.fpInstQueueWrites               612368493                       # Number of floating instruction queue writes (Count)
system.cpu0.fpInstQueueWakeupAccesses       612368418                       # Number of floating instruction queue wakeup accesses (Count)
system.cpu0.vecInstQueueReads                       0                       # Number of vector instruction queue reads (Count)
system.cpu0.vecInstQueueWrites                      0                       # Number of vector instruction queue writes (Count)
system.cpu0.vecInstQueueWakeupAccesses              0                       # Number of vector instruction queue wakeup accesses (Count)
system.cpu0.intAluAccesses                   50331794                       # Number of integer alu accesses (Count)
system.cpu0.fpAluAccesses                   662700052                       # Number of floating point alu accesses (Count)
system.cpu0.vecAluAccesses                          0                       # Number of vector alu accesses (Count)
system.cpu0.numSquashedInsts                        8                       # Number of squashed instructions skipped in execute (Count)
system.cpu0.numSwp                                  0                       # Number of swp insts executed (Count)
system.cpu0.timesIdled                              2                       # Number of times that the entire CPU went into an idle state and unscheduled itself (Count)
system.cpu0.idleCycles                            315                       # Total number of cycles that the CPU has spent unscheduled due to idling (Cycle)
system.cpu0.MemDepUnit__0.insertedLoads      33554464                       # Number of loads inserted to the mem dependence unit. (Count)
system.cpu0.MemDepUnit__0.insertedStores           36                       # Number of stores inserted to the mem dependence unit. (Count)
system.cpu0.MemDepUnit__0.conflictingLoads            0                       # Number of conflicting loads. (Count)
system.cpu0.MemDepUnit__0.conflictingStores            0                       # Number of conflicting stores. (Count)
system.cpu0.MemDepUnit__1.insertedLoads             0                       # Number of loads inserted to the mem dependence unit. (Count)
system.cpu0.MemDepUnit__1.insertedStores            0                       # Number of stores inserted to the mem dependence unit. (Count)
system.cpu0.MemDepUnit__1.conflictingLoads            0                       # Number of conflicting loads. (Count)
system.cpu0.MemDepUnit__1.conflictingStores            0                       # Number of conflicting stores. (Count)
system.cpu0.MemDepUnit__2.insertedLoads             0                       # Number of loads inserted to the mem dependence unit. (Count)
system.cpu0.MemDepUnit__2.insertedStores            0                       # Number of stores inserted to the mem dependence unit. (Count)
system.cpu0.MemDepUnit__2.conflictingLoads            0                       # Number of conflicting loads. (Count)
system.cpu0.MemDepUnit__2.conflictingStores            0                       # Number of conflicting stores. (Count)
system.cpu0.MemDepUnit__3.insertedLoads             0                       # Number of loads inserted to the mem dependence unit. (Count)
system.cpu0.MemDepUnit__3.insertedStores            0                       # Number of stores inserted to the mem dependence unit. (Count)
system.cpu0.MemDepUnit__3.conflictingLoads            0                       # Number of conflicting loads. (Count)
system.cpu0.MemDepUnit__3.conflictingStores            0                       # Number of conflicting stores. (Count)
system.cpu0.branchPred.lookups_0::NoBranch            6      0.00%      0.00% # Number of BP lookups (Count)
system.cpu0.branchPred.lookups_0::Return            1      0.00%      0.00% # Number of BP lookups (Count)
system.cpu0.branchPred.lookups_0::CallDirect            6      0.00%      0.00% # Number of BP lookups (Count)
system.cpu0.branchPred.lookups_0::CallIndirect            0      0.00%      0.00% # Number of BP lookups (Count)
system.cpu0.branchPred.lookups_0::DirectCond      8388619    100.00%    100.00% # Number of BP lookups (Count)
system.cpu0.branchPred.lookups_0::DirectUncond            0      0.00%    100.00% # Number of BP lookups (Count)
system.cpu0.branchPred.lookups_0::IndirectCond            0      0.00%    100.00% # Number of BP lookups (Count)
system.cpu0.branchPred.lookups_0::IndirectUncond           16      0.00%    100.00% # Number of BP lookups (Count)
system.cpu0.branchPred.lookups_0::total       8388648                       # Number of BP lookups (Count)
system.cpu0.branchPred.squashes_0::NoBranch            5     50.00%     50.00% # Number of branches that got squashed (completely removed) as an earlier branch was mispredicted. (Count)
system.cpu0.branchPred.squashes_0::Return            0      0.00%     50.00% # Number of branches that got squashed (completely removed) as an earlier branch was mispredicted. (Count)
system.cpu0.branchPred.squashes_0::CallDirect            2     20.00%     70.00% # Number of branches that got squashed (completely removed) as an earlier branch was mispredicted. (Count)
system.cpu0.branchPred.squashes_0::CallIndirect            0      0.00%     70.00% # Number of branches that got squashed (completely removed) as an earlier branch was mispredicted. (Count)
system.cpu0.branchPred.squashes_0::DirectCond            3     30.00%    100.00% # Number of branches that got squashed (completely removed) as an earlier branch was mispredicted. (Count)
system.cpu0.branchPred.squashes_0::DirectUncond            0      0.00%    100.00% # Number of branches that got squashed (completely removed) as an earlier branch was mispredicted. (Count)
system.cpu0.branchPred.squashes_0::IndirectCond            0      0.00%    100.00% # Number of branches that got squashed (completely removed) as an earlier branch was mispredicted. (Count)
system.cpu0.branchPred.squashes_0::IndirectUncond            0      0.00%    100.00% # Number of branches that got squashed (completely removed) as an earlier branch was mispredicted. (Count)
system.cpu0.branchPred.squashes_0::total           10                       # Number of branches that got squashed (completely removed) as an earlier branch was mispredicted. (Count)
system.cpu0.branchPred.corrected_0::NoBranch            1     12.50%     12.50% # Number of branches that got corrected but not yet commited. Branches get corrected by decode or after execute. Also a branch misprediction can be detected out-of-order. Therefore, a corrected branch might not end up beeing committed in case an even earlier branch was mispredicted (Count)
system.cpu0.branchPred.corrected_0::Return            0      0.00%     12.50% # Number of branches that got corrected but not yet commited. Branches get corrected by decode or after execute. Also a branch misprediction can be detected out-of-order. Therefore, a corrected branch might not end up beeing committed in case an even earlier branch was mispredicted (Count)
system.cpu0.branchPred.corrected_0::CallDirect            2     25.00%     37.50% # Number of branches that got corrected but not yet commited. Branches get corrected by decode or after execute. Also a branch misprediction can be detected out-of-order. Therefore, a corrected branch might not end up beeing committed in case an even earlier branch was mispredicted (Count)
system.cpu0.branchPred.corrected_0::CallIndirect            0      0.00%     37.50% # Number of branches that got corrected but not yet commited. Branches get corrected by decode or after execute. Also a branch misprediction can be detected out-of-order. Therefore, a corrected branch might not end up beeing committed in case an even earlier branch was mispredicted (Count)
system.cpu0.branchPred.corrected_0::DirectCond            5     62.50%    100.00% # Number of branches that got corrected but not yet commited. Branches get corrected by decode or after execute. Also a branch misprediction can be detected out-of-order. Therefore, a corrected branch might not end up beeing committed in case an even earlier branch was mispredicted (Count)
system.cpu0.branchPred.corrected_0::DirectUncond            0      0.00%    100.00% # Number of branches that got corrected but not yet commited. Branches get corrected by decode or after execute. Also a branch misprediction can be detected out-of-order. Therefore, a corrected branch might not end up beeing committed in case an even earlier branch was mispredicted (Count)
system.cpu0.branchPred.corrected_0::IndirectCond            0      0.00%    100.00% # Number of branches that got corrected but not yet commited. Branches get corrected by decode or after execute. Also a branch misprediction can be detected out-of-order. Therefore, a corrected branch might not end up beeing committed in case an even earlier branch was mispredicted (Count)
system.cpu0.branchPred.corrected_0::IndirectUncond            0      0.00%    100.00% # Number of branches that got corrected but not yet commited. Branches get corrected by decode or after execute. Also a branch misprediction can be detected out-of-order. Therefore, a corrected branch might not end up beeing committed in case an even earlier branch was mispredicted (Count)
system.cpu0.branchPred.corrected_0::total            8                       # Number of branches that got corrected but not yet commited. Branches get corrected by decode or after execute. Also a branch misprediction can be detected out-of-order. Therefore, a corrected branch might not end up beeing committed in case an even earlier branch was mispredicted (Count)
system.cpu0.branchPred.earlyResteers_0::NoBranch            0                       # Number of branches that got redirected after decode. (Count)
system.cpu0.branchPred.earlyResteers_0::Return            0                       # Number of branches that got redirected after decode. (Count)
system.cpu0.branchPred.earlyResteers_0::CallDirect            0                       # Number of branches that got redirected after decode. (Count)
system.cpu0.branchPred.earlyResteers_0::CallIndirect            0                       # Number of branches that got redirected after decode. (Count)
system.cpu0.branchPred.earlyResteers_0::DirectCond            0                       # Number of branches that got redirected after decode. (Count)
system.cpu0.branchPred.earlyResteers_0::DirectUncond            0                       # Number of branches that got redirected after decode. (Count)
system.cpu0.branchPred.earlyResteers_0::IndirectCond            0                       # Number of branches that got redirected after decode. (Count)
system.cpu0.branchPred.earlyResteers_0::IndirectUncond            0                       # Number of branches that got redirected after decode. (Count)
system.cpu0.branchPred.earlyResteers_0::total            0                       # Number of branches that got redirected after decode. (Count)
system.cpu0.branchPred.committed_0::NoBranch            0      0.00%      0.00% # Number of branches finally committed  (Count)
system.cpu0.branchPred.committed_0::Return            1      0.00%      0.00% # Number of branches finally committed  (Count)
system.cpu0.branchPred.committed_0::CallDirect            1      0.00%      0.00% # Number of branches finally committed  (Count)
system.cpu0.branchPred.committed_0::CallIndirect            0      0.00%      0.00% # Number of branches finally committed  (Count)
system.cpu0.branchPred.committed_0::DirectCond      8388609    100.00%    100.00% # Number of branches finally committed  (Count)
system.cpu0.branchPred.committed_0::DirectUncond            0      0.00%    100.00% # Number of branches finally committed  (Count)
system.cpu0.branchPred.committed_0::IndirectCond            0      0.00%    100.00% # Number of branches finally committed  (Count)
system.cpu0.branchPred.committed_0::IndirectUncond            0      0.00%    100.00% # Number of branches finally committed  (Count)
system.cpu0.branchPred.committed_0::total      8388611                       # Number of branches finally committed  (Count)
system.cpu0.branchPred.mispredicted_0::NoBranch            0      0.00%      0.00% # Number of committed branches that were mispredicted. (Count)
system.cpu0.branchPred.mispredicted_0::Return            0      0.00%      0.00% # Number of committed branches that were mispredicted. (Count)
system.cpu0.branchPred.mispredicted_0::CallDirect            0      0.00%      0.00% # Number of committed branches that were mispredicted. (Count)
system.cpu0.branchPred.mispredicted_0::CallIndirect            0      0.00%      0.00% # Number of committed branches that were mispredicted. (Count)
system.cpu0.branchPred.mispredicted_0::DirectCond            5    100.00%    100.00% # Number of committed branches that were mispredicted. (Count)
system.cpu0.branchPred.mispredicted_0::DirectUncond            0      0.00%    100.00% # Number of committed branches that were mispredicted. (Count)
system.cpu0.branchPred.mispredicted_0::IndirectCond            0      0.00%    100.00% # Number of committed branches that were mispredicted. (Count)
system.cpu0.branchPred.mispredicted_0::IndirectUncond            0      0.00%    100.00% # Number of committed branches that were mispredicted. (Count)
system.cpu0.branchPred.mispredicted_0::total            5                       # Number of committed branches that were mispredicted. (Count)
system.cpu0.branchPred.targetProvider_0::NoTarget           37      0.00%      0.00% # The component providing the target for taken branches (Count)
system.cpu0.branchPred.targetProvider_0::BTB      8388610    100.00%    100.00% # The component providing the target for taken branches (Count)
system.cpu0.branchPred.targetProvider_0::RAS            1      0.00%    100.00% # The component providing the target for taken branches (Count)
system.cpu0.branchPred.targetProvider_0::Indirect            0      0.00%    100.00% # The component providing the target for taken branches (Count)
system.cpu0.branchPred.targetProvider_0::total      8388648                       # The component providing the target for taken branches (Count)
system.cpu0.branchPred.targetWrong_0::NoBranch            5     83.33%     83.33% # Number of branches where the target was incorrect or not available at prediction time. (Count)
system.cpu0.branchPred.targetWrong_0::Return            1     16.67%    100.00% # Number of branches where the target was incorrect or not available at prediction time. (Count)
system.cpu0.branchPred.targetWrong_0::CallDirect            0      0.00%    100.00% # Number of branches where the target was incorrect or not available at prediction time. (Count)
system.cpu0.branchPred.targetWrong_0::CallIndirect            0      0.00%    100.00% # Number of branches where the target was incorrect or not available at prediction time. (Count)
system.cpu0.branchPred.targetWrong_0::DirectCond            0      0.00%    100.00% # Number of branches where the target was incorrect or not available at prediction time. (Count)
system.cpu0.branchPred.targetWrong_0::DirectUncond            0      0.00%    100.00% # Number of branches where the target was incorrect or not available at prediction time. (Count)
system.cpu0.branchPred.targetWrong_0::IndirectCond            0      0.00%    100.00% # Number of branches where the target was incorrect or not available at prediction time. (Count)
system.cpu0.branchPred.targetWrong_0::IndirectUncond            0      0.00%    100.00% # Number of branches where the target was incorrect or not available at prediction time. (Count)
system.cpu0.branchPred.targetWrong_0::total            6                       # Number of branches where the target was incorrect or not available at prediction time. (Count)
system.cpu0.branchPred.condPredicted          8388625                       # Number of conditional branches predicted (Count)
system.cpu0.branchPred.condPredictedTaken      8388606                       # Number of conditional branches predicted as taken (Count)
system.cpu0.branchPred.condIncorrect                8                       # Number of conditional branches incorrect (Count)
system.cpu0.branchPred.predTakenBTBMiss             2                       # Number of branches predicted taken but missed in BTB (Count)
system.cpu0.branchPred.NotTakenMispredicted            7                       # Number branches predicted 'not taken' but turned out to be taken (Count)
system.cpu0.branchPred.TakenMispredicted            1                       # Number branches predicted taken but are actually not taken (Count)
system.cpu0.branchPred.BTBLookups             8388648                       # Number of BTB lookups (Count)
system.cpu0.branchPred.BTBUpdates                   6                       # Number of BTB updates (Count)
system.cpu0.branchPred.BTBHits                8388612                       # Number of BTB hits (Count)
system.cpu0.branchPred.BTBHitRatio           0.999996                       # BTB Hit Ratio (Ratio)
system.cpu0.branchPred.BTBMispredicted              4                       # Number BTB mispredictions. No target found or target wrong (Count)
system.cpu0.branchPred.indirectLookups             16                       # Number of indirect predictor lookups. (Count)
system.cpu0.branchPred.indirectHits                 0                       # Number of indirect target hits. (Count)
system.cpu0.branchPred.indirectMisses              16                       # Number of indirect misses. (Count)
system.cpu0.branchPred.indirectMispredicted            0                       # Number of mispredicted indirect branches. (Count)
system.cpu0.branchPred.btb.lookups::NoBranch            6      0.00%      0.00% # Number of BTB lookups (Count)
system.cpu0.branchPred.btb.lookups::Return            1      0.00%      0.00% # Number of BTB lookups (Count)
system.cpu0.branchPred.btb.lookups::CallDirect            6      0.00%      0.00% # Number of BTB lookups (Count)
system.cpu0.branchPred.btb.lookups::CallIndirect            0      0.00%      0.00% # Number of BTB lookups (Count)
system.cpu0.branchPred.btb.lookups::DirectCond      8388619    100.00%    100.00% # Number of BTB lookups (Count)
system.cpu0.branchPred.btb.lookups::DirectUncond            0      0.00%    100.00% # Number of BTB lookups (Count)
system.cpu0.branchPred.btb.lookups::IndirectCond            0      0.00%    100.00% # Number of BTB lookups (Count)
system.cpu0.branchPred.btb.lookups::IndirectUncond           16      0.00%    100.00% # Number of BTB lookups (Count)
system.cpu0.branchPred.btb.lookups::total      8388648                       # Number of BTB lookups (Count)
system.cpu0.branchPred.btb.misses::NoBranch            6     16.67%     16.67% # Number of BTB misses (Count)
system.cpu0.branchPred.btb.misses::Return            1      2.78%     19.44% # Number of BTB misses (Count)
system.cpu0.branchPred.btb.misses::CallDirect            2      5.56%     25.00% # Number of BTB misses (Count)
system.cpu0.branchPred.btb.misses::CallIndirect            0      0.00%     25.00% # Number of BTB misses (Count)
system.cpu0.branchPred.btb.misses::DirectCond           11     30.56%     55.56% # Number of BTB misses (Count)
system.cpu0.branchPred.btb.misses::DirectUncond            0      0.00%     55.56% # Number of BTB misses (Count)
system.cpu0.branchPred.btb.misses::IndirectCond            0      0.00%     55.56% # Number of BTB misses (Count)
system.cpu0.branchPred.btb.misses::IndirectUncond           16     44.44%    100.00% # Number of BTB misses (Count)
system.cpu0.branchPred.btb.misses::total           36                       # Number of BTB misses (Count)
system.cpu0.branchPred.btb.updates::NoBranch            0      0.00%      0.00% # Number of BTB updates (Count)
system.cpu0.branchPred.btb.updates::Return            0      0.00%      0.00% # Number of BTB updates (Count)
system.cpu0.branchPred.btb.updates::CallDirect            2     33.33%     33.33% # Number of BTB updates (Count)
system.cpu0.branchPred.btb.updates::CallIndirect            0      0.00%     33.33% # Number of BTB updates (Count)
system.cpu0.branchPred.btb.updates::DirectCond            4     66.67%    100.00% # Number of BTB updates (Count)
system.cpu0.branchPred.btb.updates::DirectUncond            0      0.00%    100.00% # Number of BTB updates (Count)
system.cpu0.branchPred.btb.updates::IndirectCond            0      0.00%    100.00% # Number of BTB updates (Count)
system.cpu0.branchPred.btb.updates::IndirectUncond            0      0.00%    100.00% # Number of BTB updates (Count)
system.cpu0.branchPred.btb.updates::total            6                       # Number of BTB updates (Count)
system.cpu0.branchPred.btb.mispredict::NoBranch            0      0.00%      0.00% # Number of BTB mispredictions. No target found or target wrong. (Count)
system.cpu0.branchPred.btb.mispredict::Return            0      0.00%      0.00% # Number of BTB mispredictions. No target found or target wrong. (Count)
system.cpu0.branchPred.btb.mispredict::CallDirect            2     33.33%     33.33% # Number of BTB mispredictions. No target found or target wrong. (Count)
system.cpu0.branchPred.btb.mispredict::CallIndirect            0      0.00%     33.33% # Number of BTB mispredictions. No target found or target wrong. (Count)
system.cpu0.branchPred.btb.mispredict::DirectCond            4     66.67%    100.00% # Number of BTB mispredictions. No target found or target wrong. (Count)
system.cpu0.branchPred.btb.mispredict::DirectUncond            0      0.00%    100.00% # Number of BTB mispredictions. No target found or target wrong. (Count)
system.cpu0.branchPred.btb.mispredict::IndirectCond            0      0.00%    100.00% # Number of BTB mispredictions. No target found or target wrong. (Count)
system.cpu0.branchPred.btb.mispredict::IndirectUncond            0      0.00%    100.00% # Number of BTB mispredictions. No target found or target wrong. (Count)
system.cpu0.branchPred.btb.mispredict::total            6                       # Number of BTB mispredictions. No target found or target wrong. (Count)
system.cpu0.branchPred.btb.power_state.pwrStateResidencyTicks::UNDEFINED 141628682500                       # Cumulative time (in ticks) in various power states (Tick)
system.cpu0.branchPred.indirectBranchPred.lookups           16                       # Number of lookups (Count)
system.cpu0.branchPred.indirectBranchPred.hits            0                       # Number of hits of a tag (Count)
system.cpu0.branchPred.indirectBranchPred.misses           16                       # Number of misses (Count)
system.cpu0.branchPred.indirectBranchPred.targetRecords            0                       # Number of targets that where recorded/installed in the cache (Count)
system.cpu0.branchPred.indirectBranchPred.indirectRecords           16                       # Number of indirect branches/calls recorded in the indirect hist (Count)
system.cpu0.branchPred.indirectBranchPred.speculativeOverflows            0                       # Number of times more than the allowed capacity for speculative branches/calls where in flight and destroy the path history (Count)
system.cpu0.branchPred.ras.pushes                   6                       # Number of times a PC was pushed onto the RAS (Count)
system.cpu0.branchPred.ras.pops                     3                       # Number of times a PC was poped from the RAS (Count)
system.cpu0.branchPred.ras.squashes                 2                       # Number of times the stack operation was squashed due to wrong speculation. (Count)
system.cpu0.branchPred.ras.used                     1                       # Number of times the RAS is the provider (Count)
system.cpu0.branchPred.ras.correct                  1                       # Number of times the RAS is the provider and the prediction is correct (Count)
system.cpu0.branchPred.ras.incorrect                0                       # Number of times the RAS is the provider and the prediction is wrong (Count)
system.cpu0.branchPred.tage.longestMatchProviderCorrect            0                       # Number of times TAGE Longest Match is the provider and the prediction is correct (Count)
system.cpu0.branchPred.tage.altMatchProviderCorrect            0                       # Number of times TAGE Alt Match is the provider and the prediction is correct (Count)
system.cpu0.branchPred.tage.bimodalAltMatchProviderCorrect            0                       # Number of times TAGE Alt Match is the bimodal and it is the provider and the prediction is correct (Count)
system.cpu0.branchPred.tage.bimodalProviderCorrect      8388604                       # Number of times there are no hits on the TAGE tables and the bimodal prediction is correct (Count)
system.cpu0.branchPred.tage.longestMatchProviderWrong            0                       # Number of times TAGE Longest Match is the provider and the prediction is wrong (Count)
system.cpu0.branchPred.tage.altMatchProviderWrong            0                       # Number of times TAGE Alt Match is the provider and the prediction is wrong (Count)
system.cpu0.branchPred.tage.bimodalAltMatchProviderWrong            0                       # Number of times TAGE Alt Match is the bimodal and it is the provider and the prediction is wrong (Count)
system.cpu0.branchPred.tage.bimodalProviderWrong            5                       # Number of times there are no hits on the TAGE tables and the bimodal prediction is wrong (Count)
system.cpu0.branchPred.tage.altMatchProviderWouldHaveHit            0                       # Number of times TAGE Longest Match is the provider, the prediction is wrong and Alt Match prediction was correct (Count)
system.cpu0.branchPred.tage.longestMatchProviderWouldHaveHit            0                       # Number of times TAGE Alt Match is the provider, the prediction is wrong and Longest Match prediction was correct (Count)
system.cpu0.branchPred.tage.longestMatchProvider::0            0                       # TAGE provider for longest match (Count)
system.cpu0.branchPred.tage.longestMatchProvider::1            0                       # TAGE provider for longest match (Count)
system.cpu0.branchPred.tage.longestMatchProvider::2            0                       # TAGE provider for longest match (Count)
system.cpu0.branchPred.tage.longestMatchProvider::3            0                       # TAGE provider for longest match (Count)
system.cpu0.branchPred.tage.longestMatchProvider::4            0                       # TAGE provider for longest match (Count)
system.cpu0.branchPred.tage.longestMatchProvider::5            0                       # TAGE provider for longest match (Count)
system.cpu0.branchPred.tage.longestMatchProvider::6            0                       # TAGE provider for longest match (Count)
system.cpu0.branchPred.tage.longestMatchProvider::7            0                       # TAGE provider for longest match (Count)
system.cpu0.branchPred.tage.altMatchProvider::0            0                       # TAGE provider for alt match (Count)
system.cpu0.branchPred.tage.altMatchProvider::1            0                       # TAGE provider for alt match (Count)
system.cpu0.branchPred.tage.altMatchProvider::2            0                       # TAGE provider for alt match (Count)
system.cpu0.branchPred.tage.altMatchProvider::3            0                       # TAGE provider for alt match (Count)
system.cpu0.branchPred.tage.altMatchProvider::4            0                       # TAGE provider for alt match (Count)
system.cpu0.branchPred.tage.altMatchProvider::5            0                       # TAGE provider for alt match (Count)
system.cpu0.branchPred.tage.altMatchProvider::6            0                       # TAGE provider for alt match (Count)
system.cpu0.branchPred.tage.altMatchProvider::7            0                       # TAGE provider for alt match (Count)
system.cpu0.commit.commitSquashedInsts             50                       # The number of squashed insts skipped by commit (Count)
system.cpu0.commit.commitNonSpecStalls              1                       # The number of times commit has been forced to stall to communicate backwards (Count)
system.cpu0.commit.branchMispredicts                6                       # The number of times a branch was mispredicted (Count)
system.cpu0.commit.numCommittedDist::samples    327110786                       # Number of insts commited each cycle (Count)
system.cpu0.commit.numCommittedDist::mean     2.025919                       # Number of insts commited each cycle (Count)
system.cpu0.commit.numCommittedDist::stdev     2.642065                       # Number of insts commited each cycle (Count)
system.cpu0.commit.numCommittedDist::underflows            0      0.00%      0.00% # Number of insts commited each cycle (Count)
system.cpu0.commit.numCommittedDist::0      163532917     49.99%     49.99% # Number of insts commited each cycle (Count)
system.cpu0.commit.numCommittedDist::1        1048580      0.32%     50.31% # Number of insts commited each cycle (Count)
system.cpu0.commit.numCommittedDist::2       69206015     21.16%     71.47% # Number of insts commited each cycle (Count)
system.cpu0.commit.numCommittedDist::3       17825797      5.45%     76.92% # Number of insts commited each cycle (Count)
system.cpu0.commit.numCommittedDist::4       26214401      8.01%     84.93% # Number of insts commited each cycle (Count)
system.cpu0.commit.numCommittedDist::5        8388609      2.56%     87.50% # Number of insts commited each cycle (Count)
system.cpu0.commit.numCommittedDist::6        2097158      0.64%     88.14% # Number of insts commited each cycle (Count)
system.cpu0.commit.numCommittedDist::7              2      0.00%     88.14% # Number of insts commited each cycle (Count)
system.cpu0.commit.numCommittedDist::8       38797307     11.86%    100.00% # Number of insts commited each cycle (Count)
system.cpu0.commit.numCommittedDist::overflows            0      0.00%    100.00% # Number of insts commited each cycle (Count)
system.cpu0.commit.numCommittedDist::min_value            0                       # Number of insts commited each cycle (Count)
system.cpu0.commit.numCommittedDist::max_value            8                       # Number of insts commited each cycle (Count)
system.cpu0.commit.numCommittedDist::total    327110786                       # Number of insts commited each cycle (Count)
system.cpu0.commit.amos                             0                       # Number of atomic instructions committed (Count)
system.cpu0.commit.membars                          0                       # Number of memory barriers committed (Count)
system.cpu0.commit.functionCalls                    1                       # Number of function calls committed. (Count)
system.cpu0.commit.committedInstType_0::No_OpClass            2      0.00%      0.00% # Class of committed instruction (Count)
system.cpu0.commit.committedInstType_0::IntAlu    192938002     29.11%     29.11% # Class of committed instruction (Count)
system.cpu0.commit.committedInstType_0::IntMult            0      0.00%     29.11% # Class of committed instruction (Count)
system.cpu0.commit.committedInstType_0::IntDiv            0      0.00%     29.11% # Class of committed instruction (Count)
system.cpu0.commit.committedInstType_0::FloatAdd            0      0.00%     29.11% # Class of committed instruction (Count)
system.cpu0.commit.committedInstType_0::FloatCmp            0      0.00%     29.11% # Class of committed instruction (Count)
system.cpu0.commit.committedInstType_0::FloatCvt            0      0.00%     29.11% # Class of committed instruction (Count)
system.cpu0.commit.committedInstType_0::FloatMult            0      0.00%     29.11% # Class of committed instruction (Count)
system.cpu0.commit.committedInstType_0::FloatMultAcc            0      0.00%     29.11% # Class of committed instruction (Count)
system.cpu0.commit.committedInstType_0::FloatDiv            0      0.00%     29.11% # Class of committed instruction (Count)
system.cpu0.commit.committedInstType_0::FloatMisc            0      0.00%     29.11% # Class of committed instruction (Count)
system.cpu0.commit.committedInstType_0::FloatSqrt            0      0.00%     29.11% # Class of committed instruction (Count)
system.cpu0.commit.committedInstType_0::SimdAdd    150994946     22.78%     51.90% # Class of committed instruction (Count)
system.cpu0.commit.committedInstType_0::SimdAddAcc            0      0.00%     51.90% # Class of committed instruction (Count)
system.cpu0.commit.committedInstType_0::SimdAlu            3      0.00%     51.90% # Class of committed instruction (Count)
system.cpu0.commit.committedInstType_0::SimdCmp            0      0.00%     51.90% # Class of committed instruction (Count)
system.cpu0.commit.committedInstType_0::SimdCvt     33554432      5.06%     56.96% # Class of committed instruction (Count)
system.cpu0.commit.committedInstType_0::SimdMisc     50331648      7.59%     64.56% # Class of committed instruction (Count)
system.cpu0.commit.committedInstType_0::SimdMult    100663296     15.19%     79.75% # Class of committed instruction (Count)
system.cpu0.commit.committedInstType_0::SimdMultAcc            0      0.00%     79.75% # Class of committed instruction (Count)
system.cpu0.commit.committedInstType_0::SimdMatMultAcc            0      0.00%     79.75% # Class of committed instruction (Count)
system.cpu0.commit.committedInstType_0::SimdShift    100663299     15.19%     94.94% # Class of committed instruction (Count)
system.cpu0.commit.committedInstType_0::SimdShiftAcc            0      0.00%     94.94% # Class of committed instruction (Count)
system.cpu0.commit.committedInstType_0::SimdDiv            0      0.00%     94.94% # Class of committed instruction (Count)
system.cpu0.commit.committedInstType_0::SimdSqrt            0      0.00%     94.94% # Class of committed instruction (Count)
system.cpu0.commit.committedInstType_0::SimdFloatAdd            0      0.00%     94.94% # Class of committed instruction (Count)
system.cpu0.commit.committedInstType_0::SimdFloatAlu            0      0.00%     94.94% # Class of committed instruction (Count)
system.cpu0.commit.committedInstType_0::SimdFloatCmp            0      0.00%     94.94% # Class of committed instruction (Count)
system.cpu0.commit.committedInstType_0::SimdFloatCvt            0      0.00%     94.94% # Class of committed instruction (Count)
system.cpu0.commit.committedInstType_0::SimdFloatDiv            0      0.00%     94.94% # Class of committed instruction (Count)
system.cpu0.commit.committedInstType_0::SimdFloatMisc            0      0.00%     94.94% # Class of committed instruction (Count)
system.cpu0.commit.committedInstType_0::SimdFloatMult            0      0.00%     94.94% # Class of committed instruction (Count)
system.cpu0.commit.committedInstType_0::SimdFloatMultAcc            0      0.00%     94.94% # Class of committed instruction (Count)
system.cpu0.commit.committedInstType_0::SimdFloatMatMultAcc            0      0.00%     94.94% # Class of committed instruction (Count)
system.cpu0.commit.committedInstType_0::SimdFloatSqrt            0      0.00%     94.94% # Class of committed instruction (Count)
system.cpu0.commit.committedInstType_0::SimdReduceAdd            0      0.00%     94.94% # Class of committed instruction (Count)
system.cpu0.commit.committedInstType_0::SimdReduceAlu            0      0.00%     94.94% # Class of committed instruction (Count)
system.cpu0.commit.committedInstType_0::SimdReduceCmp            0      0.00%     94.94% # Class of committed instruction (Count)
system.cpu0.commit.committedInstType_0::SimdFloatReduceAdd            0      0.00%     94.94% # Class of committed instruction (Count)
system.cpu0.commit.committedInstType_0::SimdFloatReduceCmp            0      0.00%     94.94% # Class of committed instruction (Count)
system.cpu0.commit.committedInstType_0::SimdAes            0      0.00%     94.94% # Class of committed instruction (Count)
system.cpu0.commit.committedInstType_0::SimdAesMix            0      0.00%     94.94% # Class of committed instruction (Count)
system.cpu0.commit.committedInstType_0::SimdSha1Hash            0      0.00%     94.94% # Class of committed instruction (Count)
system.cpu0.commit.committedInstType_0::SimdSha1Hash2            0      0.00%     94.94% # Class of committed instruction (Count)
system.cpu0.commit.committedInstType_0::SimdSha256Hash            0      0.00%     94.94% # Class of committed instruction (Count)
system.cpu0.commit.committedInstType_0::SimdSha256Hash2            0      0.00%     94.94% # Class of committed instruction (Count)
system.cpu0.commit.committedInstType_0::SimdShaSigma2            0      0.00%     94.94% # Class of committed instruction (Count)
system.cpu0.commit.committedInstType_0::SimdShaSigma3            0      0.00%     94.94% # Class of committed instruction (Count)
system.cpu0.commit.committedInstType_0::SimdPredAlu            0      0.00%     94.94% # Class of committed instruction (Count)
system.cpu0.commit.committedInstType_0::Matrix            0      0.00%     94.94% # Class of committed instruction (Count)
system.cpu0.commit.committedInstType_0::MatrixMov            0      0.00%     94.94% # Class of committed instruction (Count)
system.cpu0.commit.committedInstType_0::MatrixOP            0      0.00%     94.94% # Class of committed instruction (Count)
system.cpu0.commit.committedInstType_0::MemRead            1      0.00%     94.94% # Class of committed instruction (Count)
system.cpu0.commit.committedInstType_0::MemWrite            1      0.00%     94.94% # Class of committed instruction (Count)
system.cpu0.commit.committedInstType_0::FloatMemRead     33554436      5.06%    100.00% # Class of committed instruction (Count)
system.cpu0.commit.committedInstType_0::FloatMemWrite            2      0.00%    100.00% # Class of committed instruction (Count)
system.cpu0.commit.committedInstType_0::IprAccess            0      0.00%    100.00% # Class of committed instruction (Count)
system.cpu0.commit.committedInstType_0::InstPrefetch            0      0.00%    100.00% # Class of committed instruction (Count)
system.cpu0.commit.committedInstType_0::VectorUnitStrideLoad            0      0.00%    100.00% # Class of committed instruction (Count)
system.cpu0.commit.committedInstType_0::VectorUnitStrideStore            0      0.00%    100.00% # Class of committed instruction (Count)
system.cpu0.commit.committedInstType_0::VectorUnitStrideMaskLoad            0      0.00%    100.00% # Class of committed instruction (Count)
system.cpu0.commit.committedInstType_0::VectorUnitStrideMaskStore            0      0.00%    100.00% # Class of committed instruction (Count)
system.cpu0.commit.committedInstType_0::VectorStridedLoad            0      0.00%    100.00% # Class of committed instruction (Count)
system.cpu0.commit.committedInstType_0::VectorStridedStore            0      0.00%    100.00% # Class of committed instruction (Count)
system.cpu0.commit.committedInstType_0::VectorIndexedLoad            0      0.00%    100.00% # Class of committed instruction (Count)
system.cpu0.commit.committedInstType_0::VectorIndexedStore            0      0.00%    100.00% # Class of committed instruction (Count)
system.cpu0.commit.committedInstType_0::VectorUnitStrideFaultOnlyFirstLoad            0      0.00%    100.00% # Class of committed instruction (Count)
system.cpu0.commit.committedInstType_0::VectorWholeRegisterLoad            0      0.00%    100.00% # Class of committed instruction (Count)
system.cpu0.commit.committedInstType_0::VectorWholeRegisterStore            0      0.00%    100.00% # Class of committed instruction (Count)
system.cpu0.commit.committedInstType_0::VectorIntegerArith            0      0.00%    100.00% # Class of committed instruction (Count)
system.cpu0.commit.committedInstType_0::VectorFloatArith            0      0.00%    100.00% # Class of committed instruction (Count)
system.cpu0.commit.committedInstType_0::VectorFloatConvert            0      0.00%    100.00% # Class of committed instruction (Count)
system.cpu0.commit.committedInstType_0::VectorIntegerReduce            0      0.00%    100.00% # Class of committed instruction (Count)
system.cpu0.commit.committedInstType_0::VectorFloatReduce            0      0.00%    100.00% # Class of committed instruction (Count)
system.cpu0.commit.committedInstType_0::VectorMisc            0      0.00%    100.00% # Class of committed instruction (Count)
system.cpu0.commit.committedInstType_0::VectorIntegerExtension            0      0.00%    100.00% # Class of committed instruction (Count)
system.cpu0.commit.committedInstType_0::VectorConfig            0      0.00%    100.00% # Class of committed instruction (Count)
system.cpu0.commit.committedInstType_0::total    662700068                       # Class of committed instruction (Count)
system.cpu0.commit.commitEligibleSamples     38797307                       # number cycles where commit BW limit reached (Cycle)
system.cpu0.commitStats0.numInsts           327155727                       # Number of instructions committed (thread level) (Count)
system.cpu0.commitStats0.numOps             662700068                       # Number of ops (including micro ops) committed (thread level) (Count)
system.cpu0.commitStats0.numInstsNotNOP     327155727                       # Number of instructions committed excluding NOPs or prefetches (Count)
system.cpu0.commitStats0.numOpsNotNOP       662700068                       # Number of Ops (including micro ops) Simulated (Count)
system.cpu0.commitStats0.cpi                 0.999864                       # CPI: cycles per instruction (thread level) ((Cycle/Count))
system.cpu0.commitStats0.ipc                 1.000136                       # IPC: instructions per cycle (thread level) ((Count/Cycle))
system.cpu0.commitStats0.numMemRefs          33554440                       # Number of memory references committed (Count)
system.cpu0.commitStats0.numFpInsts         612368402                       # Number of float instructions (Count)
system.cpu0.commitStats0.numIntInsts         83886101                       # Number of integer instructions (Count)
system.cpu0.commitStats0.numLoadInsts        33554437                       # Number of load instructions (Count)
system.cpu0.commitStats0.numStoreInsts              3                       # Number of store instructions (Count)
system.cpu0.commitStats0.numVecInsts                0                       # Number of vector instructions (Count)
system.cpu0.commitStats0.committedInstType::No_OpClass            2      0.00%      0.00% # Class of committed instruction. (Count)
system.cpu0.commitStats0.committedInstType::IntAlu    192938002     29.11%     29.11% # Class of committed instruction. (Count)
system.cpu0.commitStats0.committedInstType::IntMult            0      0.00%     29.11% # Class of committed instruction. (Count)
system.cpu0.commitStats0.committedInstType::IntDiv            0      0.00%     29.11% # Class of committed instruction. (Count)
system.cpu0.commitStats0.committedInstType::FloatAdd            0      0.00%     29.11% # Class of committed instruction. (Count)
system.cpu0.commitStats0.committedInstType::FloatCmp            0      0.00%     29.11% # Class of committed instruction. (Count)
system.cpu0.commitStats0.committedInstType::FloatCvt            0      0.00%     29.11% # Class of committed instruction. (Count)
system.cpu0.commitStats0.committedInstType::FloatMult            0      0.00%     29.11% # Class of committed instruction. (Count)
system.cpu0.commitStats0.committedInstType::FloatMultAcc            0      0.00%     29.11% # Class of committed instruction. (Count)
system.cpu0.commitStats0.committedInstType::FloatDiv            0      0.00%     29.11% # Class of committed instruction. (Count)
system.cpu0.commitStats0.committedInstType::FloatMisc            0      0.00%     29.11% # Class of committed instruction. (Count)
system.cpu0.commitStats0.committedInstType::FloatSqrt            0      0.00%     29.11% # Class of committed instruction. (Count)
system.cpu0.commitStats0.committedInstType::SimdAdd    150994946     22.78%     51.90% # Class of committed instruction. (Count)
system.cpu0.commitStats0.committedInstType::SimdAddAcc            0      0.00%     51.90% # Class of committed instruction. (Count)
system.cpu0.commitStats0.committedInstType::SimdAlu            3      0.00%     51.90% # Class of committed instruction. (Count)
system.cpu0.commitStats0.committedInstType::SimdCmp            0      0.00%     51.90% # Class of committed instruction. (Count)
system.cpu0.commitStats0.committedInstType::SimdCvt     33554432      5.06%     56.96% # Class of committed instruction. (Count)
system.cpu0.commitStats0.committedInstType::SimdMisc     50331648      7.59%     64.56% # Class of committed instruction. (Count)
system.cpu0.commitStats0.committedInstType::SimdMult    100663296     15.19%     79.75% # Class of committed instruction. (Count)
system.cpu0.commitStats0.committedInstType::SimdMultAcc            0      0.00%     79.75% # Class of committed instruction. (Count)
system.cpu0.commitStats0.committedInstType::SimdMatMultAcc            0      0.00%     79.75% # Class of committed instruction. (Count)
system.cpu0.commitStats0.committedInstType::SimdShift    100663299     15.19%     94.94% # Class of committed instruction. (Count)
system.cpu0.commitStats0.committedInstType::SimdShiftAcc            0      0.00%     94.94% # Class of committed instruction. (Count)
system.cpu0.commitStats0.committedInstType::SimdDiv            0      0.00%     94.94% # Class of committed instruction. (Count)
system.cpu0.commitStats0.committedInstType::SimdSqrt            0      0.00%     94.94% # Class of committed instruction. (Count)
system.cpu0.commitStats0.committedInstType::SimdFloatAdd            0      0.00%     94.94% # Class of committed instruction. (Count)
system.cpu0.commitStats0.committedInstType::SimdFloatAlu            0      0.00%     94.94% # Class of committed instruction. (Count)
system.cpu0.commitStats0.committedInstType::SimdFloatCmp            0      0.00%     94.94% # Class of committed instruction. (Count)
system.cpu0.commitStats0.committedInstType::SimdFloatCvt            0      0.00%     94.94% # Class of committed instruction. (Count)
system.cpu0.commitStats0.committedInstType::SimdFloatDiv            0      0.00%     94.94% # Class of committed instruction. (Count)
system.cpu0.commitStats0.committedInstType::SimdFloatMisc            0      0.00%     94.94% # Class of committed instruction. (Count)
system.cpu0.commitStats0.committedInstType::SimdFloatMult            0      0.00%     94.94% # Class of committed instruction. (Count)
system.cpu0.commitStats0.committedInstType::SimdFloatMultAcc            0      0.00%     94.94% # Class of committed instruction. (Count)
system.cpu0.commitStats0.committedInstType::SimdFloatMatMultAcc            0      0.00%     94.94% # Class of committed instruction. (Count)
system.cpu0.commitStats0.committedInstType::SimdFloatSqrt            0      0.00%     94.94% # Class of committed instruction. (Count)
system.cpu0.commitStats0.committedInstType::SimdReduceAdd            0      0.00%     94.94% # Class of committed instruction. (Count)
system.cpu0.commitStats0.committedInstType::SimdReduceAlu            0      0.00%     94.94% # Class of committed instruction. (Count)
system.cpu0.commitStats0.committedInstType::SimdReduceCmp            0      0.00%     94.94% # Class of committed instruction. (Count)
system.cpu0.commitStats0.committedInstType::SimdFloatReduceAdd            0      0.00%     94.94% # Class of committed instruction. (Count)
system.cpu0.commitStats0.committedInstType::SimdFloatReduceCmp            0      0.00%     94.94% # Class of committed instruction. (Count)
system.cpu0.commitStats0.committedInstType::SimdAes            0      0.00%     94.94% # Class of committed instruction. (Count)
system.cpu0.commitStats0.committedInstType::SimdAesMix            0      0.00%     94.94% # Class of committed instruction. (Count)
system.cpu0.commitStats0.committedInstType::SimdSha1Hash            0      0.00%     94.94% # Class of committed instruction. (Count)
system.cpu0.commitStats0.committedInstType::SimdSha1Hash2            0      0.00%     94.94% # Class of committed instruction. (Count)
system.cpu0.commitStats0.committedInstType::SimdSha256Hash            0      0.00%     94.94% # Class of committed instruction. (Count)
system.cpu0.commitStats0.committedInstType::SimdSha256Hash2            0      0.00%     94.94% # Class of committed instruction. (Count)
system.cpu0.commitStats0.committedInstType::SimdShaSigma2            0      0.00%     94.94% # Class of committed instruction. (Count)
system.cpu0.commitStats0.committedInstType::SimdShaSigma3            0      0.00%     94.94% # Class of committed instruction. (Count)
system.cpu0.commitStats0.committedInstType::SimdPredAlu            0      0.00%     94.94% # Class of committed instruction. (Count)
system.cpu0.commitStats0.committedInstType::Matrix            0      0.00%     94.94% # Class of committed instruction. (Count)
system.cpu0.commitStats0.committedInstType::MatrixMov            0      0.00%     94.94% # Class of committed instruction. (Count)
system.cpu0.commitStats0.committedInstType::MatrixOP            0      0.00%     94.94% # Class of committed instruction. (Count)
system.cpu0.commitStats0.committedInstType::MemRead            1      0.00%     94.94% # Class of committed instruction. (Count)
system.cpu0.commitStats0.committedInstType::MemWrite            1      0.00%     94.94% # Class of committed instruction. (Count)
system.cpu0.commitStats0.committedInstType::FloatMemRead     33554436      5.06%    100.00% # Class of committed instruction. (Count)
system.cpu0.commitStats0.committedInstType::FloatMemWrite            2      0.00%    100.00% # Class of committed instruction. (Count)
system.cpu0.commitStats0.committedInstType::IprAccess            0      0.00%    100.00% # Class of committed instruction. (Count)
system.cpu0.commitStats0.committedInstType::InstPrefetch            0      0.00%    100.00% # Class of committed instruction. (Count)
system.cpu0.commitStats0.committedInstType::VectorUnitStrideLoad            0      0.00%    100.00% # Class of committed instruction. (Count)
system.cpu0.commitStats0.committedInstType::VectorUnitStrideStore            0      0.00%    100.00% # Class of committed instruction. (Count)
system.cpu0.commitStats0.committedInstType::VectorUnitStrideMaskLoad            0      0.00%    100.00% # Class of committed instruction. (Count)
system.cpu0.commitStats0.committedInstType::VectorUnitStrideMaskStore            0      0.00%    100.00% # Class of committed instruction. (Count)
system.cpu0.commitStats0.committedInstType::VectorStridedLoad            0      0.00%    100.00% # Class of committed instruction. (Count)
system.cpu0.commitStats0.committedInstType::VectorStridedStore            0      0.00%    100.00% # Class of committed instruction. (Count)
system.cpu0.commitStats0.committedInstType::VectorIndexedLoad            0      0.00%    100.00% # Class of committed instruction. (Count)
system.cpu0.commitStats0.committedInstType::VectorIndexedStore            0      0.00%    100.00% # Class of committed instruction. (Count)
system.cpu0.commitStats0.committedInstType::VectorUnitStrideFaultOnlyFirstLoad            0      0.00%    100.00% # Class of committed instruction. (Count)
system.cpu0.commitStats0.committedInstType::VectorWholeRegisterLoad            0      0.00%    100.00% # Class of committed instruction. (Count)
system.cpu0.commitStats0.committedInstType::VectorWholeRegisterStore            0      0.00%    100.00% # Class of committed instruction. (Count)
system.cpu0.commitStats0.committedInstType::VectorIntegerArith            0      0.00%    100.00% # Class of committed instruction. (Count)
system.cpu0.commitStats0.committedInstType::VectorFloatArith            0      0.00%    100.00% # Class of committed instruction. (Count)
system.cpu0.commitStats0.committedInstType::VectorFloatConvert            0      0.00%    100.00% # Class of committed instruction. (Count)
system.cpu0.commitStats0.committedInstType::VectorIntegerReduce            0      0.00%    100.00% # Class of committed instruction. (Count)
system.cpu0.commitStats0.committedInstType::VectorFloatReduce            0      0.00%    100.00% # Class of committed instruction. (Count)
[...]
system.mem_ctrl.dram.perBankRdBursts::10        65516                       # Per bank write bursts (Count)
system.mem_ctrl.dram.perBankRdBursts::11        65536                       # Per bank write bursts (Count)
system.mem_ctrl.dram.perBankRdBursts::12        65536                       # Per bank write bursts (Count)
system.mem_ctrl.dram.perBankRdBursts::13        65536                       # Per bank write bursts (Count)
system.mem_ctrl.dram.perBankRdBursts::14        65536                       # Per bank write bursts (Count)
system.mem_ctrl.dram.perBankRdBursts::15        65536                       # Per bank write bursts (Count)
system.mem_ctrl.dram.perBankRdBursts::16        65536                       # Per bank write bursts (Count)
system.mem_ctrl.dram.perBankRdBursts::17        65536                       # Per bank write bursts (Count)
system.mem_ctrl.dram.perBankRdBursts::18        65536                       # Per bank write bursts (Count)
system.mem_ctrl.dram.perBankRdBursts::19        65536                       # Per bank write bursts (Count)
system.mem_ctrl.dram.perBankRdBursts::20        65536                       # Per bank write bursts (Count)
system.mem_ctrl.dram.perBankRdBursts::21        65536                       # Per bank write bursts (Count)
system.mem_ctrl.dram.perBankRdBursts::22        65536                       # Per bank write bursts (Count)
system.mem_ctrl.dram.perBankRdBursts::23        65536                       # Per bank write bursts (Count)
system.mem_ctrl.dram.perBankRdBursts::24        65536                       # Per bank write bursts (Count)
system.mem_ctrl.dram.perBankRdBursts::25        65536                       # Per bank write bursts (Count)
system.mem_ctrl.dram.perBankRdBursts::26        65536                       # Per bank write bursts (Count)
system.mem_ctrl.dram.perBankRdBursts::27        65536                       # Per bank write bursts (Count)
system.mem_ctrl.dram.perBankRdBursts::28        65536                       # Per bank write bursts (Count)
system.mem_ctrl.dram.perBankRdBursts::29        65536                       # Per bank write bursts (Count)
system.mem_ctrl.dram.perBankRdBursts::30        65536                       # Per bank write bursts (Count)
system.mem_ctrl.dram.perBankRdBursts::31        65536                       # Per bank write bursts (Count)
system.mem_ctrl.dram.perBankWrBursts::0          1024                       # Per bank write bursts (Count)
system.mem_ctrl.dram.perBankWrBursts::1          1024                       # Per bank write bursts (Count)
system.mem_ctrl.dram.perBankWrBursts::2          1024                       # Per bank write bursts (Count)
system.mem_ctrl.dram.perBankWrBursts::3          1024                       # Per bank write bursts (Count)
system.mem_ctrl.dram.perBankWrBursts::4          1032                       # Per bank write bursts (Count)
system.mem_ctrl.dram.perBankWrBursts::5          1026                       # Per bank write bursts (Count)
system.mem_ctrl.dram.perBankWrBursts::6          1024                       # Per bank write bursts (Count)
system.mem_ctrl.dram.perBankWrBursts::7          1024                       # Per bank write bursts (Count)
system.mem_ctrl.dram.perBankWrBursts::8          1044                       # Per bank write bursts (Count)
system.mem_ctrl.dram.perBankWrBursts::9          1015                       # Per bank write bursts (Count)
system.mem_ctrl.dram.perBankWrBursts::10         1006                       # Per bank write bursts (Count)
system.mem_ctrl.dram.perBankWrBursts::11         1024                       # Per bank write bursts (Count)
system.mem_ctrl.dram.perBankWrBursts::12         1024                       # Per bank write bursts (Count)
system.mem_ctrl.dram.perBankWrBursts::13         1014                       # Per bank write bursts (Count)
system.mem_ctrl.dram.perBankWrBursts::14         1024                       # Per bank write bursts (Count)
system.mem_ctrl.dram.perBankWrBursts::15         1024                       # Per bank write bursts (Count)
system.mem_ctrl.dram.perBankWrBursts::16         1024                       # Per bank write bursts (Count)
system.mem_ctrl.dram.perBankWrBursts::17         1010                       # Per bank write bursts (Count)
system.mem_ctrl.dram.perBankWrBursts::18         1018                       # Per bank write bursts (Count)
system.mem_ctrl.dram.perBankWrBursts::19         1024                       # Per bank write bursts (Count)
system.mem_ctrl.dram.perBankWrBursts::20         1008                       # Per bank write bursts (Count)
system.mem_ctrl.dram.perBankWrBursts::21         1018                       # Per bank write bursts (Count)
system.mem_ctrl.dram.perBankWrBursts::22         1018                       # Per bank write bursts (Count)
system.mem_ctrl.dram.perBankWrBursts::23         1018                       # Per bank write bursts (Count)
system.mem_ctrl.dram.perBankWrBursts::24         1003                       # Per bank write bursts (Count)
system.mem_ctrl.dram.perBankWrBursts::25         1008                       # Per bank write bursts (Count)
system.mem_ctrl.dram.perBankWrBursts::26         1015                       # Per bank write bursts (Count)
system.mem_ctrl.dram.perBankWrBursts::27         1024                       # Per bank write bursts (Count)
system.mem_ctrl.dram.perBankWrBursts::28         1024                       # Per bank write bursts (Count)
system.mem_ctrl.dram.perBankWrBursts::29         1024                       # Per bank write bursts (Count)
system.mem_ctrl.dram.perBankWrBursts::30         1024                       # Per bank write bursts (Count)
system.mem_ctrl.dram.perBankWrBursts::31         1024                       # Per bank write bursts (Count)
system.mem_ctrl.dram.totQLat              38845450102                       # Total ticks spent queuing (Tick)
system.mem_ctrl.dram.totBusLat             6987627164                       # Total ticks spent in databus transfers (Tick)
system.mem_ctrl.dram.totMemAccLat         75528395586                       # Total ticks spent from burst creation until serviced by the DRAM (Tick)
system.mem_ctrl.dram.avgQLat                 18523.17                       # Average queueing delay per DRAM burst ((Tick/Count))
system.mem_ctrl.dram.avgBusLat                3332.00                       # Average bus latency per DRAM burst ((Tick/Count))
system.mem_ctrl.dram.avgMemAccLat            36015.17                       # Average memory access latency per DRAM burst ((Tick/Count))
system.mem_ctrl.dram.readRowHits              1959854                       # Number of row buffer hits during reads (Count)
system.mem_ctrl.dram.writeRowHits               29561                       # Number of row buffer hits during writes (Count)
system.mem_ctrl.dram.readRowHitRate             93.45                       # Row buffer hit rate for reads (Ratio)
system.mem_ctrl.dram.writeRowHitRate            90.51                       # Row buffer hit rate for writes (Ratio)
system.mem_ctrl.dram.bytesPerActivate::samples       140383                       # Bytes accessed per row activation (Byte)
system.mem_ctrl.dram.bytesPerActivate::mean   970.978879                       # Bytes accessed per row activation (Byte)
system.mem_ctrl.dram.bytesPerActivate::gmean   935.869558                       # Bytes accessed per row activation (Byte)
system.mem_ctrl.dram.bytesPerActivate::stdev   178.704989                       # Bytes accessed per row activation (Byte)
system.mem_ctrl.dram.bytesPerActivate::0-127          105      0.07%      0.07% # Bytes accessed per row activation (Byte)
system.mem_ctrl.dram.bytesPerActivate::128-255         1016      0.72%      0.80% # Bytes accessed per row activation (Byte)
system.mem_ctrl.dram.bytesPerActivate::256-383         5445      3.88%      4.68% # Bytes accessed per row activation (Byte)
system.mem_ctrl.dram.bytesPerActivate::384-511          566      0.40%      5.08% # Bytes accessed per row activation (Byte)
system.mem_ctrl.dram.bytesPerActivate::512-639          405      0.29%      5.37% # Bytes accessed per row activation (Byte)
system.mem_ctrl.dram.bytesPerActivate::640-767          827      0.59%      5.96% # Bytes accessed per row activation (Byte)
system.mem_ctrl.dram.bytesPerActivate::768-895         5480      3.90%      9.86% # Bytes accessed per row activation (Byte)
system.mem_ctrl.dram.bytesPerActivate::896-1023          298      0.21%     10.07% # Bytes accessed per row activation (Byte)
system.mem_ctrl.dram.bytesPerActivate::1024-1151       126241     89.93%    100.00% # Bytes accessed per row activation (Byte)
system.mem_ctrl.dram.bytesPerActivate::total       140383                       # Bytes accessed per row activation (Byte)
system.mem_ctrl.dram.dramBytesRead          134216128                       # Total bytes read (Byte)
system.mem_ctrl.dram.dramBytesWritten         2090304                       # Total bytes written (Byte)
system.mem_ctrl.dram.avgRdBW              1641.229827                       # Average DRAM read bandwidth in MiBytes/s ((Byte/Second))
system.mem_ctrl.dram.avgWrBW                25.560783                       # Average DRAM write bandwidth in MiBytes/s ((Byte/Second))
system.mem_ctrl.dram.peakBW                  19207.00                       # Theoretical peak bandwidth in MiByte/s ((Byte/Second))
system.mem_ctrl.dram.busUtil                     8.68                       # Data bus utilization in percentage (Ratio)
system.mem_ctrl.dram.busUtilRead                 8.54                       # Data bus utilization in percentage for reads (Ratio)
system.mem_ctrl.dram.busUtilWrite                0.13                       # Data bus utilization in percentage for writes (Ratio)
system.mem_ctrl.dram.pageHitRate                93.41                       # Row buffer hit rate, read and write combined (Ratio)
system.mem_ctrl.dram.power_state.pwrStateResidencyTicks::UNDEFINED 141628682500                       # Cumulative time (in ticks) in various power states (Tick)
system.mem_ctrl.dram.rank0.actEnergy     109465076.447989                       # Energy for activate commands per rank (pJ) (Joule)
system.mem_ctrl.dram.rank0.preEnergy     193236950.289582                       # Energy for precharge commands per rank (pJ) (Joule)
system.mem_ctrl.dram.rank0.readEnergy    2876160827.299223                       # Energy for read commands per rank (pJ) (Joule)
system.mem_ctrl.dram.rank0.writeEnergy   38638978.224000                       # Energy for write commands per rank (pJ) (Joule)
system.mem_ctrl.dram.rank0.refreshEnergy 7098510837.447559                       # Energy for refresh commands per rank (pJ) (Joule)
system.mem_ctrl.dram.rank0.actBackEnergy 16520290933.321096                       # Energy for active background per rank (pJ) (Joule)
system.mem_ctrl.dram.rank0.preBackEnergy 15287652875.846487                       # Energy for precharge background per rank (pJ) (Joule)
system.mem_ctrl.dram.rank0.actPowerDownEnergy            0                       # Energy for active power-down per rank (pJ) (Joule)
system.mem_ctrl.dram.rank0.prePowerDownEnergy            0                       # Energy for precharge power-down per rank (pJ) (Joule)
system.mem_ctrl.dram.rank0.selfRefreshEnergy            0                       # Energy for self refresh per rank (pJ) (Joule)
system.mem_ctrl.dram.rank0.totalEnergy   42123956478.874405                       # Total energy per rank (pJ) (Joule)
system.mem_ctrl.dram.rank0.averagePower    515.102729                       # Core power per rank (mW) (Watt)
system.mem_ctrl.dram.rank0.totalIdleTime            0                       # Total Idle time Per DRAM Rank (Tick)
system.mem_ctrl.dram.rank0.pwrStateTime::IDLE  46027128778                       # Time in different power states (Tick)
system.mem_ctrl.dram.rank0.pwrStateTime::REF   3676050000                       # Time in different power states (Tick)
system.mem_ctrl.dram.rank0.pwrStateTime::SREF            0                       # Time in different power states (Tick)
system.mem_ctrl.dram.rank0.pwrStateTime::PRE_PDN            0                       # Time in different power states (Tick)
system.mem_ctrl.dram.rank0.pwrStateTime::ACT  32075387482                       # Time in different power states (Tick)
system.mem_ctrl.dram.rank0.pwrStateTime::ACT_PDN            0                       # Time in different power states (Tick)
system.mem_ctrl.dram.rank1.actEnergy     109457279.567989                       # Energy for activate commands per rank (pJ) (Joule)
system.mem_ctrl.dram.rank1.preEnergy     193234197.391182                       # Energy for precharge commands per rank (pJ) (Joule)
system.mem_ctrl.dram.rank1.readEnergy    2876152598.592023                       # Energy for read commands per rank (pJ) (Joule)
system.mem_ctrl.dram.rank1.writeEnergy   38492716.752000                       # Energy for write commands per rank (pJ) (Joule)
system.mem_ctrl.dram.rank1.refreshEnergy 7098510837.447559                       # Energy for refresh commands per rank (pJ) (Joule)
system.mem_ctrl.dram.rank1.actBackEnergy 16498255451.041119                       # Energy for active background per rank (pJ) (Joule)
system.mem_ctrl.dram.rank1.preBackEnergy 15302840446.387293                       # Energy for precharge background per rank (pJ) (Joule)
system.mem_ctrl.dram.rank1.actPowerDownEnergy            0                       # Energy for active power-down per rank (pJ) (Joule)
system.mem_ctrl.dram.rank1.prePowerDownEnergy            0                       # Energy for precharge power-down per rank (pJ) (Joule)
system.mem_ctrl.dram.rank1.selfRefreshEnergy            0                       # Energy for self refresh per rank (pJ) (Joule)
system.mem_ctrl.dram.rank1.totalEnergy   42116943527.177521                       # Total energy per rank (pJ) (Joule)
system.mem_ctrl.dram.rank1.averagePower    515.016973                       # Core power per rank (mW) (Watt)
system.mem_ctrl.dram.rank1.totalIdleTime            0                       # Total Idle time Per DRAM Rank (Tick)
system.mem_ctrl.dram.rank1.pwrStateTime::IDLE  46073756382                       # Time in different power states (Tick)
system.mem_ctrl.dram.rank1.pwrStateTime::REF   3676050000                       # Time in different power states (Tick)
system.mem_ctrl.dram.rank1.pwrStateTime::SREF            0                       # Time in different power states (Tick)
system.mem_ctrl.dram.rank1.pwrStateTime::PRE_PDN            0                       # Time in different power states (Tick)
system.mem_ctrl.dram.rank1.pwrStateTime::ACT  32028683618                       # Time in different power states (Tick)
system.mem_ctrl.dram.rank1.pwrStateTime::ACT_PDN            0                       # Time in different power states (Tick)
system.mem_ctrl.power_state.pwrStateResidencyTicks::UNDEFINED 141628682500                       # Cumulative time (in ticks) in various power states (Tick)
system.membus.transDist::ReadResp             1048579                       # Transaction distribution (Count)
system.membus.transDist::WritebackDirty         16323                       # Transaction distribution (Count)
system.membus.transDist::CleanEvict           1032213                       # Transaction distribution (Count)
system.membus.transDist::ReadExReq                  1                       # Transaction distribution (Count)
system.membus.transDist::ReadExResp                 1                       # Transaction distribution (Count)
system.membus.transDist::ReadSharedReq        1048585                       # Transaction distribution (Count)
system.membus.pktCount_system.l3cache.mem_side_port::system.mem_ctrl.port      3145702                       # Packet count per connected requestor and responder (Count)
system.membus.pktCount_system.l3cache.mem_side_port::total      3145702                       # Packet count per connected requestor and responder (Count)
system.membus.pktCount::total                 3145702                       # Packet count per connected requestor and responder (Count)
system.membus.pktSize_system.l3cache.mem_side_port::system.mem_ctrl.port    136307584                       # Cumulative packet size per connected requestor and responder (Byte)
system.membus.pktSize_system.l3cache.mem_side_port::total    136307584                       # Cumulative packet size per connected requestor and responder (Byte)
system.membus.pktSize::total                136307584                       # Cumulative packet size per connected requestor and responder (Byte)
system.membus.snoops                                0                       # Total snoops (Count)
system.membus.snoopTraffic                          0                       # Total snoop traffic (Byte)
system.membus.snoopFanout::samples            1048586                       # Request fanout histogram (Count)
system.membus.snoopFanout::mean                     0                       # Request fanout histogram (Count)
system.membus.snoopFanout::stdev                    0                       # Request fanout histogram (Count)
system.membus.snoopFanout::underflows               0      0.00%      0.00% # Request fanout histogram (Count)
system.membus.snoopFanout::0                  1048586    100.00%    100.00% # Request fanout histogram (Count)
system.membus.snoopFanout::1                        0      0.00%    100.00% # Request fanout histogram (Count)
system.membus.snoopFanout::overflows                0      0.00%    100.00% # Request fanout histogram (Count)
system.membus.snoopFanout::min_value                0                       # Request fanout histogram (Count)
system.membus.snoopFanout::max_value                0                       # Request fanout histogram (Count)
system.membus.snoopFanout::total              1048586                       # Request fanout histogram (Count)
system.membus.power_state.pwrStateResidencyTicks::UNDEFINED 141628682500                       # Cumulative time (in ticks) in various power states (Tick)
system.membus.reqLayer8.occupancy           556926500                       # Layer occupancy (ticks) (Tick)
system.membus.reqLayer8.utilization               0.0                       # Layer utilization (Ratio)
system.membus.respLayer0.occupancy         2380879000                       # Layer occupancy (ticks) (Tick)
system.membus.respLayer0.utilization              0.0                       # Layer utilization (Ratio)
system.membus.snoop_filter.totRequests        2097122                       # Total number of requests made to the snoop filter. (Count)
system.membus.snoop_filter.hitSingleRequests      1048536                       # Number of requests hitting in the snoop filter with a single holder of the requested data. (Count)
system.membus.snoop_filter.hitMultiRequests            0                       # Number of requests hitting in the snoop filter with multiple (>1) holders of the requested data. (Count)
system.membus.snoop_filter.totSnoops                0                       # Total number of snoops made to the snoop filter. (Count)
system.membus.snoop_filter.hitSingleSnoops            0                       # Number of snoops hitting in the snoop filter with a single holder of the requested data. (Count)
system.membus.snoop_filter.hitMultiSnoops            0                       # Number of snoops hitting in the snoop filter with multiple (>1) holders of the requested data. (Count)
system.workload.inst.arm                            0                       # number of arm instructions executed (Count)
system.workload.inst.quiesce                        0                       # number of quiesce instructions executed (Count)

---------- End Simulation Statistics   ----------
