grep -r -e "Begin" -e "End" -e "avgMshrOccupancy" ./m5out
./m5out/stats.txt:---------- Begin Simulation Statistics ----------
./m5out/stats.txt:system.cpu0.dcache.avgMshrOccupancy          0.708130                       # number of MSHRs occupancy (Count)
./m5out/stats.txt:system.cpu0.icache.avgMshrOccupancy          0.000001                       # number of MSHRs occupancy (Count)
./m5out/stats.txt:system.cpu1.dcache.avgMshrOccupancy                 0                       # number of MSHRs occupancy (Count)
./m5out/stats.txt:system.cpu1.icache.avgMshrOccupancy                 0                       # number of MSHRs occupancy (Count)
./m5out/stats.txt:system.cpu2.dcache.avgMshrOccupancy                 0                       # number of MSHRs occupancy (Count)
./m5out/stats.txt:system.cpu2.icache.avgMshrOccupancy                 0                       # number of MSHRs occupancy (Count)
./m5out/stats.txt:system.cpu3.dcache.avgMshrOccupancy                 0                       # number of MSHRs occupancy (Count)
./m5out/stats.txt:system.cpu3.icache.avgMshrOccupancy                 0                       # number of MSHRs occupancy (Count)
./m5out/stats.txt:system.l2cache1.avgMshrOccupancy             0.000005                       # number of MSHRs occupancy (Count)
./m5out/stats.txt:system.l2cache2.avgMshrOccupancy                    0                       # number of MSHRs occupancy (Count)
./m5out/stats.txt:system.l3cache.avgMshrOccupancy              0.000005                       # number of MSHRs occupancy (Count)
./m5out/stats.txt:---------- End Simulation Statistics   ----------
./m5out/stats.txt:---------- Begin Simulation Statistics ----------
./m5out/stats.txt:system.cpu0.dcache.avgMshrOccupancy          0.707431                       # number of MSHRs occupancy (Count)
./m5out/stats.txt:system.cpu0.icache.avgMshrOccupancy          0.000004                       # number of MSHRs occupancy (Count)
./m5out/stats.txt:system.cpu1.dcache.avgMshrOccupancy                 0                       # number of MSHRs occupancy (Count)
./m5out/stats.txt:system.cpu1.icache.avgMshrOccupancy                 0                       # number of MSHRs occupancy (Count)
./m5out/stats.txt:system.cpu2.dcache.avgMshrOccupancy                 0                       # number of MSHRs occupancy (Count)
./m5out/stats.txt:system.cpu2.icache.avgMshrOccupancy                 0                       # number of MSHRs occupancy (Count)
./m5out/stats.txt:system.cpu3.dcache.avgMshrOccupancy                 0                       # number of MSHRs occupancy (Count)
./m5out/stats.txt:system.cpu3.icache.avgMshrOccupancy                 0                       # number of MSHRs occupancy (Count)
./m5out/stats.txt:system.l2cache1.avgMshrOccupancy             0.000002                       # number of MSHRs occupancy (Count)
./m5out/stats.txt:system.l2cache2.avgMshrOccupancy                    0                       # number of MSHRs occupancy (Count)
./m5out/stats.txt:system.l3cache.avgMshrOccupancy              0.000002                       # number of MSHRs occupancy (Count)
./m5out/stats.txt:---------- End Simulation Statistics   ----------
./m5out/stats.txt:---------- Begin Simulation Statistics ----------
./m5out/stats.txt:system.cpu0.dcache.avgMshrOccupancy          0.541025                       # number of MSHRs occupancy (Count)
./m5out/stats.txt:system.cpu0.icache.avgMshrOccupancy          0.000000                       # number of MSHRs occupancy (Count)
./m5out/stats.txt:system.cpu1.dcache.avgMshrOccupancy                 0                       # number of MSHRs occupancy (Count)
./m5out/stats.txt:system.cpu1.icache.avgMshrOccupancy                 0                       # number of MSHRs occupancy (Count)
./m5out/stats.txt:system.cpu2.dcache.avgMshrOccupancy                 0                       # number of MSHRs occupancy (Count)
./m5out/stats.txt:system.cpu2.icache.avgMshrOccupancy                 0                       # number of MSHRs occupancy (Count)
./m5out/stats.txt:system.cpu3.dcache.avgMshrOccupancy                 0                       # number of MSHRs occupancy (Count)
./m5out/stats.txt:system.cpu3.icache.avgMshrOccupancy                 0                       # number of MSHRs occupancy (Count)
./m5out/stats.txt:system.l2cache1.avgMshrOccupancy             0.000003                       # number of MSHRs occupancy (Count)
./m5out/stats.txt:system.l2cache2.avgMshrOccupancy                    0                       # number of MSHRs occupancy (Count)
./m5out/stats.txt:system.l3cache.avgMshrOccupancy              0.000003                       # number of MSHRs occupancy (Count)
./m5out/stats.txt:---------- End Simulation Statistics   ----------
./m5out/stats.txt:---------- Begin Simulation Statistics ----------
./m5out/stats.txt:system.cpu0.dcache.avgMshrOccupancy          0.541025                       # number of MSHRs occupancy (Count)
./m5out/stats.txt:system.cpu0.icache.avgMshrOccupancy          0.000001                       # number of MSHRs occupancy (Count)
./m5out/stats.txt:system.cpu1.dcache.avgMshrOccupancy                 0                       # number of MSHRs occupancy (Count)
./m5out/stats.txt:system.cpu1.icache.avgMshrOccupancy                 0                       # number of MSHRs occupancy (Count)
./m5out/stats.txt:system.cpu2.dcache.avgMshrOccupancy                 0                       # number of MSHRs occupancy (Count)
./m5out/stats.txt:system.cpu2.icache.avgMshrOccupancy                 0                       # number of MSHRs occupancy (Count)
./m5out/stats.txt:system.cpu3.dcache.avgMshrOccupancy                 0                       # number of MSHRs occupancy (Count)
./m5out/stats.txt:system.cpu3.icache.avgMshrOccupancy                 0                       # number of MSHRs occupancy (Count)
./m5out/stats.txt:system.l2cache1.avgMshrOccupancy             0.000002                       # number of MSHRs occupancy (Count)
./m5out/stats.txt:system.l2cache2.avgMshrOccupancy                    0                       # number of MSHRs occupancy (Count)
./m5out/stats.txt:system.l3cache.avgMshrOccupancy              0.000002                       # number of MSHRs occupancy (Count)
./m5out/stats.txt:---------- End Simulation Statistics   ----------
./m5out/stats.txt:---------- Begin Simulation Statistics ----------
./m5out/stats.txt:system.cpu0.dcache.avgMshrOccupancy          0.459151                       # number of MSHRs occupancy (Count)
./m5out/stats.txt:system.cpu0.icache.avgMshrOccupancy                 0                       # number of MSHRs occupancy (Count)
./m5out/stats.txt:system.cpu1.dcache.avgMshrOccupancy                 0                       # number of MSHRs occupancy (Count)
./m5out/stats.txt:system.cpu1.icache.avgMshrOccupancy                 0                       # number of MSHRs occupancy (Count)
./m5out/stats.txt:system.cpu2.dcache.avgMshrOccupancy                 0                       # number of MSHRs occupancy (Count)
./m5out/stats.txt:system.cpu2.icache.avgMshrOccupancy                 0                       # number of MSHRs occupancy (Count)
./m5out/stats.txt:system.cpu3.dcache.avgMshrOccupancy                 0                       # number of MSHRs occupancy (Count)
./m5out/stats.txt:system.cpu3.icache.avgMshrOccupancy                 0                       # number of MSHRs occupancy (Count)
./m5out/stats.txt:system.l2cache1.avgMshrOccupancy             0.000002                       # number of MSHRs occupancy (Count)
./m5out/stats.txt:system.l2cache2.avgMshrOccupancy                    0                       # number of MSHRs occupancy (Count)
./m5out/stats.txt:system.l3cache.avgMshrOccupancy              0.000002                       # number of MSHRs occupancy (Count)
./m5out/stats.txt:---------- End Simulation Statistics   ----------
./m5out/stats.txt:---------- Begin Simulation Statistics ----------
./m5out/stats.txt:system.cpu0.dcache.avgMshrOccupancy          0.459151                       # number of MSHRs occupancy (Count)
./m5out/stats.txt:system.cpu0.icache.avgMshrOccupancy          0.000000                       # number of MSHRs occupancy (Count)
./m5out/stats.txt:system.cpu1.dcache.avgMshrOccupancy                 0                       # number of MSHRs occupancy (Count)
./m5out/stats.txt:system.cpu1.icache.avgMshrOccupancy                 0                       # number of MSHRs occupancy (Count)
./m5out/stats.txt:system.cpu2.dcache.avgMshrOccupancy                 0                       # number of MSHRs occupancy (Count)
./m5out/stats.txt:system.cpu2.icache.avgMshrOccupancy                 0                       # number of MSHRs occupancy (Count)
./m5out/stats.txt:system.cpu3.dcache.avgMshrOccupancy                 0                       # number of MSHRs occupancy (Count)
./m5out/stats.txt:system.cpu3.icache.avgMshrOccupancy                 0                       # number of MSHRs occupancy (Count)
./m5out/stats.txt:system.l2cache1.avgMshrOccupancy             0.000001                       # number of MSHRs occupancy (Count)
./m5out/stats.txt:system.l2cache2.avgMshrOccupancy                    0                       # number of MSHRs occupancy (Count)
./m5out/stats.txt:system.l3cache.avgMshrOccupancy              0.000001                       # number of MSHRs occupancy (Count)
./m5out/stats.txt:---------- End Simulation Statistics   ----------
./m5out/stats.txt:---------- Begin Simulation Statistics ----------
./m5out/stats.txt:system.cpu0.dcache.avgMshrOccupancy          0.394934                       # number of MSHRs occupancy (Count)
./m5out/stats.txt:system.cpu0.icache.avgMshrOccupancy          0.000000                       # number of MSHRs occupancy (Count)
./m5out/stats.txt:system.cpu1.dcache.avgMshrOccupancy                 0                       # number of MSHRs occupancy (Count)
./m5out/stats.txt:system.cpu1.icache.avgMshrOccupancy                 0                       # number of MSHRs occupancy (Count)
./m5out/stats.txt:system.cpu2.dcache.avgMshrOccupancy                 0                       # number of MSHRs occupancy (Count)
./m5out/stats.txt:system.cpu2.icache.avgMshrOccupancy                 0                       # number of MSHRs occupancy (Count)
./m5out/stats.txt:system.cpu3.dcache.avgMshrOccupancy                 0                       # number of MSHRs occupancy (Count)
./m5out/stats.txt:system.cpu3.icache.avgMshrOccupancy                 0                       # number of MSHRs occupancy (Count)
./m5out/stats.txt:system.l2cache1.avgMshrOccupancy             0.000000                       # number of MSHRs occupancy (Count)
./m5out/stats.txt:system.l2cache2.avgMshrOccupancy                    0                       # number of MSHRs occupancy (Count)
./m5out/stats.txt:system.l3cache.avgMshrOccupancy              0.000000                       # number of MSHRs occupancy (Count)
./m5out/stats.txt:---------- End Simulation Statistics   ----------
./m5out/stats.txt:---------- Begin Simulation Statistics ----------
./m5out/stats.txt:system.cpu0.dcache.avgMshrOccupancy          0.396939                       # number of MSHRs occupancy (Count)
./m5out/stats.txt:system.cpu0.icache.avgMshrOccupancy                 0                       # number of MSHRs occupancy (Count)
./m5out/stats.txt:system.cpu1.dcache.avgMshrOccupancy                 0                       # number of MSHRs occupancy (Count)
./m5out/stats.txt:system.cpu1.icache.avgMshrOccupancy                 0                       # number of MSHRs occupancy (Count)
./m5out/stats.txt:system.cpu2.dcache.avgMshrOccupancy                 0                       # number of MSHRs occupancy (Count)
./m5out/stats.txt:system.cpu2.icache.avgMshrOccupancy                 0                       # number of MSHRs occupancy (Count)
./m5out/stats.txt:system.cpu3.dcache.avgMshrOccupancy                 0                       # number of MSHRs occupancy (Count)
./m5out/stats.txt:system.cpu3.icache.avgMshrOccupancy                 0                       # number of MSHRs occupancy (Count)
./m5out/stats.txt:system.l2cache1.avgMshrOccupancy             0.000001                       # number of MSHRs occupancy (Count)
./m5out/stats.txt:system.l2cache2.avgMshrOccupancy                    0                       # number of MSHRs occupancy (Count)
./m5out/stats.txt:system.l3cache.avgMshrOccupancy              0.000001                       # number of MSHRs occupancy (Count)
./m5out/stats.txt:---------- End Simulation Statistics   ----------
./m5out/stats.txt:---------- Begin Simulation Statistics ----------
./m5out/stats.txt:system.cpu0.dcache.avgMshrOccupancy          0.360028                       # number of MSHRs occupancy (Count)
./m5out/stats.txt:system.cpu0.icache.avgMshrOccupancy                 0                       # number of MSHRs occupancy (Count)
./m5out/stats.txt:system.cpu1.dcache.avgMshrOccupancy                 0                       # number of MSHRs occupancy (Count)
./m5out/stats.txt:system.cpu1.icache.avgMshrOccupancy                 0                       # number of MSHRs occupancy (Count)
./m5out/stats.txt:system.cpu2.dcache.avgMshrOccupancy                 0                       # number of MSHRs occupancy (Count)
./m5out/stats.txt:system.cpu2.icache.avgMshrOccupancy                 0                       # number of MSHRs occupancy (Count)
./m5out/stats.txt:system.cpu3.dcache.avgMshrOccupancy                 0                       # number of MSHRs occupancy (Count)
./m5out/stats.txt:system.cpu3.icache.avgMshrOccupancy                 0                       # number of MSHRs occupancy (Count)
./m5out/stats.txt:system.l2cache1.avgMshrOccupancy             0.000001                       # number of MSHRs occupancy (Count)
./m5out/stats.txt:system.l2cache2.avgMshrOccupancy                    0                       # number of MSHRs occupancy (Count)
./m5out/stats.txt:system.l3cache.avgMshrOccupancy              0.000001                       # number of MSHRs occupancy (Count)
./m5out/stats.txt:---------- End Simulation Statistics   ----------
./m5out/stats.txt:---------- Begin Simulation Statistics ----------
./m5out/stats.txt:system.cpu0.dcache.avgMshrOccupancy          0.358332                       # number of MSHRs occupancy (Count)
./m5out/stats.txt:system.cpu0.icache.avgMshrOccupancy          0.000000                       # number of MSHRs occupancy (Count)
./m5out/stats.txt:system.cpu1.dcache.avgMshrOccupancy                 0                       # number of MSHRs occupancy (Count)
./m5out/stats.txt:system.cpu1.icache.avgMshrOccupancy                 0                       # number of MSHRs occupancy (Count)
./m5out/stats.txt:system.cpu2.dcache.avgMshrOccupancy                 0                       # number of MSHRs occupancy (Count)
./m5out/stats.txt:system.cpu2.icache.avgMshrOccupancy                 0                       # number of MSHRs occupancy (Count)
./m5out/stats.txt:system.cpu3.dcache.avgMshrOccupancy                 0                       # number of MSHRs occupancy (Count)
./m5out/stats.txt:system.cpu3.icache.avgMshrOccupancy                 0                       # number of MSHRs occupancy (Count)
./m5out/stats.txt:system.l2cache1.avgMshrOccupancy             0.000001                       # number of MSHRs occupancy (Count)
./m5out/stats.txt:system.l2cache2.avgMshrOccupancy                    0                       # number of MSHRs occupancy (Count)
./m5out/stats.txt:system.l3cache.avgMshrOccupancy              0.000001                       # number of MSHRs occupancy (Count)
./m5out/stats.txt:---------- End Simulation Statistics   ----------
./m5out/stats.txt:---------- Begin Simulation Statistics ----------
./m5out/stats.txt:system.cpu0.dcache.avgMshrOccupancy          0.321395                       # number of MSHRs occupancy (Count)
./m5out/stats.txt:system.cpu0.icache.avgMshrOccupancy                 0                       # number of MSHRs occupancy (Count)
./m5out/stats.txt:system.cpu1.dcache.avgMshrOccupancy                 0                       # number of MSHRs occupancy (Count)
./m5out/stats.txt:system.cpu1.icache.avgMshrOccupancy                 0                       # number of MSHRs occupancy (Count)
./m5out/stats.txt:system.cpu2.dcache.avgMshrOccupancy                 0                       # number of MSHRs occupancy (Count)
./m5out/stats.txt:system.cpu2.icache.avgMshrOccupancy                 0                       # number of MSHRs occupancy (Count)
./m5out/stats.txt:system.cpu3.dcache.avgMshrOccupancy                 0                       # number of MSHRs occupancy (Count)
./m5out/stats.txt:system.cpu3.icache.avgMshrOccupancy                 0                       # number of MSHRs occupancy (Count)
./m5out/stats.txt:system.l2cache1.avgMshrOccupancy             0.000001                       # number of MSHRs occupancy (Count)
./m5out/stats.txt:system.l2cache2.avgMshrOccupancy                    0                       # number of MSHRs occupancy (Count)
./m5out/stats.txt:system.l3cache.avgMshrOccupancy              0.000001                       # number of MSHRs occupancy (Count)
./m5out/stats.txt:---------- End Simulation Statistics   ----------
./m5out/stats.txt:---------- Begin Simulation Statistics ----------
./m5out/stats.txt:system.cpu0.dcache.avgMshrOccupancy          0.321395                       # number of MSHRs occupancy (Count)
./m5out/stats.txt:system.cpu0.icache.avgMshrOccupancy                 0                       # number of MSHRs occupancy (Count)
./m5out/stats.txt:system.cpu1.dcache.avgMshrOccupancy                 0                       # number of MSHRs occupancy (Count)
./m5out/stats.txt:system.cpu1.icache.avgMshrOccupancy                 0                       # number of MSHRs occupancy (Count)
./m5out/stats.txt:system.cpu2.dcache.avgMshrOccupancy                 0                       # number of MSHRs occupancy (Count)
./m5out/stats.txt:system.cpu2.icache.avgMshrOccupancy                 0                       # number of MSHRs occupancy (Count)
./m5out/stats.txt:system.cpu3.dcache.avgMshrOccupancy                 0                       # number of MSHRs occupancy (Count)
./m5out/stats.txt:system.cpu3.icache.avgMshrOccupancy                 0                       # number of MSHRs occupancy (Count)
./m5out/stats.txt:system.l2cache1.avgMshrOccupancy             0.000001                       # number of MSHRs occupancy (Count)
./m5out/stats.txt:system.l2cache2.avgMshrOccupancy                    0                       # number of MSHRs occupancy (Count)
./m5out/stats.txt:system.l3cache.avgMshrOccupancy              0.000001                       # number of MSHRs occupancy (Count)
./m5out/stats.txt:---------- End Simulation Statistics   ----------
