grep -r -e "Begin" -e "End" -e "avgMshrOccupancy" ./m5out
./m5out/stats.txt:---------- Begin Simulation Statistics ----------
./m5out/stats.txt:system.cpu0.dcache.avgMshrOccupancy          0.570459                       # number of MSHRs occupancy (Count)
./m5out/stats.txt:system.cpu0.icache.avgMshrOccupancy          0.000002                       # number of MSHRs occupancy (Count)
./m5out/stats.txt:system.cpu1.dcache.avgMshrOccupancy                 0                       # number of MSHRs occupancy (Count)
./m5out/stats.txt:system.cpu1.icache.avgMshrOccupancy                 0                       # number of MSHRs occupancy (Count)
./m5out/stats.txt:system.cpu2.dcache.avgMshrOccupancy                 0                       # number of MSHRs occupancy (Count)
./m5out/stats.txt:system.cpu2.icache.avgMshrOccupancy                 0                       # number of MSHRs occupancy (Count)
./m5out/stats.txt:system.cpu3.dcache.avgMshrOccupancy                 0                       # number of MSHRs occupancy (Count)
./m5out/stats.txt:system.cpu3.icache.avgMshrOccupancy                 0                       # number of MSHRs occupancy (Count)
./m5out/stats.txt:system.l2cache1.avgMshrOccupancy             0.000009                       # number of MSHRs occupancy (Count)
./m5out/stats.txt:system.l2cache2.avgMshrOccupancy                    0                       # number of MSHRs occupancy (Count)
./m5out/stats.txt:system.l3cache.avgMshrOccupancy              0.502396                       # number of MSHRs occupancy (Count)
./m5out/stats.txt:---------- End Simulation Statistics   ----------
./m5out/stats.txt:---------- Begin Simulation Statistics ----------
./m5out/stats.txt:system.cpu0.dcache.avgMshrOccupancy          1.055324                       # number of MSHRs occupancy (Count)
./m5out/stats.txt:system.cpu0.icache.avgMshrOccupancy          0.000001                       # number of MSHRs occupancy (Count)
./m5out/stats.txt:system.cpu1.dcache.avgMshrOccupancy                 0                       # number of MSHRs occupancy (Count)
./m5out/stats.txt:system.cpu1.icache.avgMshrOccupancy                 0                       # number of MSHRs occupancy (Count)
./m5out/stats.txt:system.cpu2.dcache.avgMshrOccupancy                 0                       # number of MSHRs occupancy (Count)
./m5out/stats.txt:system.cpu2.icache.avgMshrOccupancy                 0                       # number of MSHRs occupancy (Count)
./m5out/stats.txt:system.cpu3.dcache.avgMshrOccupancy                 0                       # number of MSHRs occupancy (Count)
./m5out/stats.txt:system.cpu3.icache.avgMshrOccupancy                 0                       # number of MSHRs occupancy (Count)
./m5out/stats.txt:system.l2cache1.avgMshrOccupancy             0.925684                       # number of MSHRs occupancy (Count)
./m5out/stats.txt:system.l2cache2.avgMshrOccupancy                    0                       # number of MSHRs occupancy (Count)
./m5out/stats.txt:system.l3cache.avgMshrOccupancy              0.875057                       # number of MSHRs occupancy (Count)
./m5out/stats.txt:---------- End Simulation Statistics   ----------
./m5out/stats.txt:---------- Begin Simulation Statistics ----------
./m5out/stats.txt:system.cpu0.dcache.avgMshrOccupancy          0.393771                       # number of MSHRs occupancy (Count)
./m5out/stats.txt:system.cpu0.icache.avgMshrOccupancy                 0                       # number of MSHRs occupancy (Count)
./m5out/stats.txt:system.cpu1.dcache.avgMshrOccupancy                 0                       # number of MSHRs occupancy (Count)
./m5out/stats.txt:system.cpu1.icache.avgMshrOccupancy                 0                       # number of MSHRs occupancy (Count)
./m5out/stats.txt:system.cpu2.dcache.avgMshrOccupancy                 0                       # number of MSHRs occupancy (Count)
./m5out/stats.txt:system.cpu2.icache.avgMshrOccupancy                 0                       # number of MSHRs occupancy (Count)
./m5out/stats.txt:system.cpu3.dcache.avgMshrOccupancy                 0                       # number of MSHRs occupancy (Count)
./m5out/stats.txt:system.cpu3.icache.avgMshrOccupancy                 0                       # number of MSHRs occupancy (Count)
./m5out/stats.txt:system.l2cache1.avgMshrOccupancy             0.000003                       # number of MSHRs occupancy (Count)
./m5out/stats.txt:system.l2cache2.avgMshrOccupancy                    0                       # number of MSHRs occupancy (Count)
./m5out/stats.txt:system.l3cache.avgMshrOccupancy              0.320066                       # number of MSHRs occupancy (Count)
./m5out/stats.txt:---------- End Simulation Statistics   ----------
./m5out/stats.txt:---------- Begin Simulation Statistics ----------
./m5out/stats.txt:system.cpu0.dcache.avgMshrOccupancy          0.343807                       # number of MSHRs occupancy (Count)
./m5out/stats.txt:system.cpu0.icache.avgMshrOccupancy          0.000000                       # number of MSHRs occupancy (Count)
./m5out/stats.txt:system.cpu1.dcache.avgMshrOccupancy                 0                       # number of MSHRs occupancy (Count)
./m5out/stats.txt:system.cpu1.icache.avgMshrOccupancy                 0                       # number of MSHRs occupancy (Count)
./m5out/stats.txt:system.cpu2.dcache.avgMshrOccupancy                 0                       # number of MSHRs occupancy (Count)
./m5out/stats.txt:system.cpu2.icache.avgMshrOccupancy                 0                       # number of MSHRs occupancy (Count)
./m5out/stats.txt:system.cpu3.dcache.avgMshrOccupancy                 0                       # number of MSHRs occupancy (Count)
./m5out/stats.txt:system.cpu3.icache.avgMshrOccupancy                 0                       # number of MSHRs occupancy (Count)
./m5out/stats.txt:system.l2cache1.avgMshrOccupancy             0.000008                       # number of MSHRs occupancy (Count)
./m5out/stats.txt:system.l2cache2.avgMshrOccupancy                    0                       # number of MSHRs occupancy (Count)
./m5out/stats.txt:system.l3cache.avgMshrOccupancy              0.000009                       # number of MSHRs occupancy (Count)
./m5out/stats.txt:---------- End Simulation Statistics   ----------
./m5out/stats.txt:---------- Begin Simulation Statistics ----------
./m5out/stats.txt:system.cpu0.dcache.avgMshrOccupancy          0.329626                       # number of MSHRs occupancy (Count)
./m5out/stats.txt:system.cpu0.icache.avgMshrOccupancy                 0                       # number of MSHRs occupancy (Count)
./m5out/stats.txt:system.cpu1.dcache.avgMshrOccupancy                 0                       # number of MSHRs occupancy (Count)
./m5out/stats.txt:system.cpu1.icache.avgMshrOccupancy                 0                       # number of MSHRs occupancy (Count)
./m5out/stats.txt:system.cpu2.dcache.avgMshrOccupancy                 0                       # number of MSHRs occupancy (Count)
./m5out/stats.txt:system.cpu2.icache.avgMshrOccupancy                 0                       # number of MSHRs occupancy (Count)
./m5out/stats.txt:system.cpu3.dcache.avgMshrOccupancy                 0                       # number of MSHRs occupancy (Count)
./m5out/stats.txt:system.cpu3.icache.avgMshrOccupancy                 0                       # number of MSHRs occupancy (Count)
./m5out/stats.txt:system.l2cache1.avgMshrOccupancy             0.000003                       # number of MSHRs occupancy (Count)
./m5out/stats.txt:system.l2cache2.avgMshrOccupancy                    0                       # number of MSHRs occupancy (Count)
./m5out/stats.txt:system.l3cache.avgMshrOccupancy              0.274001                       # number of MSHRs occupancy (Count)
./m5out/stats.txt:---------- End Simulation Statistics   ----------
./m5out/stats.txt:---------- Begin Simulation Statistics ----------
./m5out/stats.txt:system.cpu0.dcache.avgMshrOccupancy          0.250176                       # number of MSHRs occupancy (Count)
./m5out/stats.txt:system.cpu0.icache.avgMshrOccupancy          0.000000                       # number of MSHRs occupancy (Count)
./m5out/stats.txt:system.cpu1.dcache.avgMshrOccupancy                 0                       # number of MSHRs occupancy (Count)
./m5out/stats.txt:system.cpu1.icache.avgMshrOccupancy                 0                       # number of MSHRs occupancy (Count)
./m5out/stats.txt:system.cpu2.dcache.avgMshrOccupancy                 0                       # number of MSHRs occupancy (Count)
./m5out/stats.txt:system.cpu2.icache.avgMshrOccupancy                 0                       # number of MSHRs occupancy (Count)
./m5out/stats.txt:system.cpu3.dcache.avgMshrOccupancy                 0                       # number of MSHRs occupancy (Count)
./m5out/stats.txt:system.cpu3.icache.avgMshrOccupancy                 0                       # number of MSHRs occupancy (Count)
./m5out/stats.txt:system.l2cache1.avgMshrOccupancy             0.000001                       # number of MSHRs occupancy (Count)
./m5out/stats.txt:system.l2cache2.avgMshrOccupancy                    0                       # number of MSHRs occupancy (Count)
./m5out/stats.txt:system.l3cache.avgMshrOccupancy              0.000000                       # number of MSHRs occupancy (Count)
./m5out/stats.txt:---------- End Simulation Statistics   ----------
./m5out/stats.txt:---------- Begin Simulation Statistics ----------
./m5out/stats.txt:system.cpu0.dcache.avgMshrOccupancy          0.291903                       # number of MSHRs occupancy (Count)
./m5out/stats.txt:system.cpu0.icache.avgMshrOccupancy                 0                       # number of MSHRs occupancy (Count)
./m5out/stats.txt:system.cpu1.dcache.avgMshrOccupancy                 0                       # number of MSHRs occupancy (Count)
./m5out/stats.txt:system.cpu1.icache.avgMshrOccupancy                 0                       # number of MSHRs occupancy (Count)
./m5out/stats.txt:system.cpu2.dcache.avgMshrOccupancy                 0                       # number of MSHRs occupancy (Count)
./m5out/stats.txt:system.cpu2.icache.avgMshrOccupancy                 0                       # number of MSHRs occupancy (Count)
./m5out/stats.txt:system.cpu3.dcache.avgMshrOccupancy                 0                       # number of MSHRs occupancy (Count)
./m5out/stats.txt:system.cpu3.icache.avgMshrOccupancy                 0                       # number of MSHRs occupancy (Count)
./m5out/stats.txt:system.l2cache1.avgMshrOccupancy             0.000004                       # number of MSHRs occupancy (Count)
./m5out/stats.txt:system.l2cache2.avgMshrOccupancy                    0                       # number of MSHRs occupancy (Count)
./m5out/stats.txt:system.l3cache.avgMshrOccupancy              0.206653                       # number of MSHRs occupancy (Count)
./m5out/stats.txt:---------- End Simulation Statistics   ----------
./m5out/stats.txt:---------- Begin Simulation Statistics ----------
./m5out/stats.txt:system.cpu0.dcache.avgMshrOccupancy          0.255997                       # number of MSHRs occupancy (Count)
./m5out/stats.txt:system.cpu0.icache.avgMshrOccupancy                 0                       # number of MSHRs occupancy (Count)
./m5out/stats.txt:system.cpu1.dcache.avgMshrOccupancy                 0                       # number of MSHRs occupancy (Count)
./m5out/stats.txt:system.cpu1.icache.avgMshrOccupancy                 0                       # number of MSHRs occupancy (Count)
./m5out/stats.txt:system.cpu2.dcache.avgMshrOccupancy                 0                       # number of MSHRs occupancy (Count)
./m5out/stats.txt:system.cpu2.icache.avgMshrOccupancy                 0                       # number of MSHRs occupancy (Count)
./m5out/stats.txt:system.cpu3.dcache.avgMshrOccupancy                 0                       # number of MSHRs occupancy (Count)
./m5out/stats.txt:system.cpu3.icache.avgMshrOccupancy                 0                       # number of MSHRs occupancy (Count)
./m5out/stats.txt:system.l2cache1.avgMshrOccupancy             0.139759                       # number of MSHRs occupancy (Count)
./m5out/stats.txt:system.l2cache2.avgMshrOccupancy                    0                       # number of MSHRs occupancy (Count)
./m5out/stats.txt:system.l3cache.avgMshrOccupancy              0.133313                       # number of MSHRs occupancy (Count)
./m5out/stats.txt:---------- End Simulation Statistics   ----------
